18
Coordinates from ORCA-job orca
  C   -2.45677930674348      0.90299893129313      1.46991454610527
  C   -1.39507736406108      1.78597586996690      1.30275198533999
  C   -0.75375349692378      2.34424493404993      2.40867969043925
  C   -1.19451460177400      2.00101550047804      3.68739255236896
  C   -2.25499050870177      1.11808550500050      3.85912453491788
  C   -2.88805002805281      0.56580878757856      2.74935546980726
  H   -2.95036866697832      0.48184439192031      0.60294576692768
  H   -3.71638403745479     -0.11883539509329      2.88091230992974
  H   -1.06543177404497      2.05088724810331      0.30440235549904
  H   -0.70791190468111      2.43471220732899      4.55384727098213
  H   -2.59087041006861      0.86506570555213      4.85705996969466
  C   0.43315564526964      3.28202708176897      2.22617778500217
  N   1.77433306275348      2.64036839951686      2.21377696015570
  H   1.80987832668624      1.95045205472244      1.46905412666082
  H   1.90737993190140      2.12434907313525      3.07851518111790
  H   0.43583511022276      4.02074190987975      3.02911688524614
  H   0.32409648300085      3.82369937046545      1.28549655146484
  Cu  4.92941896965095      3.65444643433054      1.91620434833779
