18
Coordinates from ORCA-job orca
  C   -2.45511470275733      0.90149459882951      1.46759547264836
  C   -1.39496033064399      1.78714170483826      1.30527865775058
  C   -0.75858999140541      2.34698059913695      2.41358478119744
  C   -1.20527372930794      2.00309558240515      3.69018932515992
  C   -2.26462546912052      1.11780335981926      3.85734167838051
  C   -2.89149066894898      0.56351198741009      2.74508954408861
  H   -2.94379183768907      0.47924840714502      0.59834182778755
  H   -3.71891720341963     -0.12291473361622      2.87307119441267
  H   -1.06170049028576      2.05272600034567      0.30823801059575
  H   -0.72372775696188      2.43794811716795      4.55892774676320
  H   -2.60469325844889      0.86462889262103      4.85384056948208
  C   0.42715023063595      3.28025158458614      2.23457216439176
  N   1.75747479328791      2.62457973612142      2.21968234100254
  H   1.77827099257166      1.92502970776584      1.48337841672648
  H   1.89199009674357      2.11736760376119      3.08937467662427
  H   0.43545809647244      4.01657128866952      3.03983543139916
  H   0.32069829911720      3.82525083029006      1.29524863205532
  Cu  5.05180836016128      3.70717274270084      1.86113781953091
