18
Coordinates from ORCA-job orca
  C   -2.45452295732280      0.90285312922318      1.46936561249549
  C   -1.39230952706551      1.78538606060263      1.30334760230058
  C   -0.75257584423377      2.34404555993062      2.41000168429606
  C   -1.19527029951176      2.00170699240175      3.68824091894974
  C   -2.25635048703611      1.11924362817296      3.85879730334102
  C   -2.88785616854742      0.56655817421627      2.74836387799315
  H   -2.94689884153113      0.48134415310655      0.60188280244027
  H   -3.71660407970705     -0.11775512605905      2.87902220914586
  H   -1.06102606527881      2.04965271741938      0.30537090141670
  H   -0.70980846147580      2.43569594485207      4.55517681550435
  H   -2.59385714226739      0.86686770252709      4.85634217655207
  C   0.43497871185304      3.28180003916817      2.22844090387652
  N   1.77650341222158      2.64008551667521      2.21415511707708
  H   1.81145637871943      1.95092309299956      1.46871432752607
  H   1.91050270856127      2.12333568455049      3.07830933574022
  H   0.43831819015534      4.01916531430138      3.03257025512828
  H   0.32561163448350      3.82498003820061      1.28869003176158
  Cu  4.90967426798396      3.65199938770890      1.90793641445221
