18
Coordinates from ORCA-job orca
  C   -2.47668692590759      0.89260057458047      1.47089425748470
  C   -1.42150270966164      1.78403105756440      1.30727755288704
  C   -0.78433455150555      2.34669613847917      2.41398979493387
  C   -1.22898172832598      1.99994403188750      3.69085777601692
  C   -2.28317576882599      1.10887173287242      3.85985216113934
  C   -2.90925846315636      0.55131104959100      2.74878592519056
  H   -2.96478132087259      0.46856551843721      0.60211837294800
  H   -3.73278285533040     -0.13959735933427      2.87795635059002
  H   -1.09174476257013      2.05168461658122      0.30953704061832
  H   -0.74853339344508      2.43705571817689      4.55918264736082
  H   -2.62012385403684      0.85399076805999      4.85703673648186
  C   0.39756187289788      3.27700071787852      2.23494781748664
  N   1.71914637787861      2.61261522774922      2.22333151046928
  H   1.73402585198953      1.91379952496904      1.48588863228242
  H   1.84152822729550      2.09884606138049      3.09124124463519
  H   0.40702314939656      4.01501852990036      3.03918299002774
  H   0.29366048598406      3.82209985525662      1.29497769221985
  Cu  5.50892579819667      3.83335424596715      1.82766978722417
