18
Coordinates from ORCA-job orca
  C   -2.20765005288482      1.03774759188910      1.30856107525423
  C   -1.17016088878454      1.96160063166675      1.31909990439124
  C   -0.63958249457805      2.41955289857345      2.52657315043825
  C   -1.16921907204269      1.94359871899219      3.72456696171379
  C   -2.21136810055484      1.02185661774441      3.71741824142405
  C   -2.72928961153100      0.56540437450330      2.50998151425953
  H   -2.61469585507282      0.69250860455930      0.36667359359127
  H   -3.54130648371349     -0.15048515780428      2.50410681311590
  H   -0.77209219840902      2.33880324023359      0.38321442583398
  H   -0.76790972450622      2.29974328913940      4.66615265786698
  H   -2.61978346185435      0.66313858481771      4.65357225215688
  C   0.52242336782153      3.37420584942179      2.52762280371291
  N   1.83016064535622      2.66009593337047      2.33115944041617
  H   1.91575661969379      1.93888773881384      3.04532804180231
  H   2.58579433744075      3.31806265147244      2.51491093130682
  H   0.56339242305113      3.91266605404654      3.47589778621493
  H   0.42962324641988      4.10192802532917      1.72299643996605
  Cu  2.23587273414864      1.82857236323014      0.59689225653390
