18
Coordinates from ORCA-job orca
  C   -2.44711768079757      0.90561073914818      1.46632720585399
  C   -1.37690819839105      1.77918008463976      1.30521665036348
  C   -0.74170052068873      2.33495803883797      2.41557284553792
  C   -1.19291952076646      1.99897583888148      3.69199026252883
  C   -2.26254289229037      1.12564396536548      3.85706568741729
  C   -2.89119199022119      0.57612290308737      2.74348238386432
  H   -2.93700305347413      0.48570680017200      0.59670415316067
  H   -3.72632147553490     -0.10112556543023      2.87018276529617
  H   -1.03662654727697      2.03877400699904      0.30913562664021
  H   -0.70895057972083      2.43051205592358      4.56083528514396
  H   -2.60849269564512      0.87756740090277      4.85274610242133
  C   0.45281242083339      3.27562832024371      2.23639546244628
  N   1.80796695888745      2.64819735016063      2.21175551686979
  H   1.84310209336747      1.95551142354379      1.46947220036290
  H   1.95680094601604      2.13801352015764      3.07746627542970
  H   0.45593946438589      4.00721937863406      3.04524831245061
  H   0.33797007070174      3.82349836572883      1.30041148447454
  Cu  4.71514863061589      3.62789338300184      1.88472006973542
