18
Coordinates from ORCA-job orca
  C   -2.29092992434967      1.03589025541314      1.33871489949866
  C   -1.23840096426302      1.94284604289544      1.29850467190287
  C   -0.65232566618724      2.39993204786520      2.47942462377431
  C   -1.13569425857560      1.93585753076537      3.70292032994433
  C   -2.18917871098423      1.02936373528187      3.74567173561802
  C   -2.76698729511535      0.57704148498251      2.56338026540249
  H   -2.74321899404993      0.69210942028355      0.41716705714512
  H   -3.59005604434506     -0.12541294223479      2.59629084960920
  H   -0.87272820448280      2.30663230645376      0.34528020838277
  H   -0.69031659712748      2.29160519857872      4.62472742461087
  H   -2.56225098189508      0.68093332628162      4.70031500355181
  C   0.51495406366601      3.35119456616086      2.43050731983753
  N   1.84512860347322      2.63254067911788      2.36010436293311
  H   1.76284490841407      1.75217032964932      2.86485364840971
  H   2.52642632621708      3.17863146711852      2.88416762175114
  H   0.52183628811409      3.96904017614990      3.32910659010869
  H   0.44324613012898      4.00727966802225      1.56599666976608
  Cu  2.75761675136221      2.27023271721388      0.64759500775216
