18
Coordinates from ORCA-job orca
  C   -2.21058199497862      1.08108047819702      1.28407700566367
  C   -1.18746917491876      2.02166618436073      1.30535183327540
  C   -0.63597815964367      2.44331330881331      2.51715158152609
  C   -1.13039324612024      1.91501667143400      3.70824668768689
  C   -2.15589351167406      0.97531414111642      3.69005612280708
  C   -2.69492647673058      0.55507965423062      2.47825677589986
  H   -2.63631483066371      0.76700728970845      0.33958536314696
  H   -3.49530559201211     -0.17363318110126      2.46455497028502
  H   -0.82251112072059      2.44505704714471      0.37550295809745
  H   -0.71307611142442      2.24297561875143      4.65320769393482
  H   -2.53544682865361      0.57391853617031      4.62100949342385
  C   0.51976418798426      3.40324107998843      2.52485535476099
  N   1.82044015491671      2.67210828254605      2.38159193143750
  H   1.97266961998926      2.10366918087784      3.21276817591427
  H   2.58235752243775      3.34729163638880      2.36304206545155
  H   0.53729106103260      3.97698471846332      3.45313235903130
  H   0.45096463643141      4.09870723202188      1.68992295746590
  Cu  1.97437529474847      1.47909013088743      0.83241496019076
