18
Coordinates from ORCA-job orca
  C   -2.34328333591609      1.04762006667897      1.36043894760504
  C   -1.28696908990566      1.94868886241823      1.27939521712943
  C   -0.65089135127175      2.39875510026180      2.43605056746592
  C   -1.08700459576876      1.93246392072371      3.67772612935178
  C   -2.14130292329811      1.03108676048804      3.76084408358546
  C   -2.77080086814612      0.58673522481385      2.60126518582724
  H   -2.83429917198901      0.70935724200198      0.45686990646797
  H   -3.59548395183709     -0.11159236923939      2.66576235032561
  H   -0.95776837796663      2.31230114812544      0.31305984891776
  H   -0.60261139834596      2.28303178424327      4.58181192829777
  H   -2.47651627394951      0.68089956671465      4.72881369856069
  C   0.51704652258361      3.34216283192207      2.34429494564042
  N   1.83748065302412      2.60340598376305      2.41415249075483
  H   1.65689147232597      1.63532227094170      2.67018738581636
  H   2.39247549912438      2.98500146224286      3.17624073231934
  H   0.49658943242271      4.05310056208476      3.16973917031649
  H   0.47995488952364      3.90187198867046      1.41329880111756
  Cu  3.00645829939051      2.58767560314348      0.84477690049906
