18
Coordinates from ORCA-job orca
  C   -2.49954917166487      0.89432835302762      1.47260691885817
  C   -1.43824041154396      1.77850737621669      1.30890318965110
  C   -0.79688254341703      2.33711392868536      2.41532075855453
  C   -1.24459234917712      1.99384701722133      3.69215023512330
  C   -2.30485688862053      1.11001874800354      3.86137222568869
  C   -2.93468971045250      0.55631899816022      2.75048747089649
  H   -2.99039606564545      0.47339554613112      0.60384424024196
  H   -3.76294634572313     -0.12890259859943      2.87978385607794
  H   -1.10644415183054      2.04338345636833      0.31107601656721
  H   -0.76118596410137      2.42776010250725      4.56047130116653
  H   -2.64361166533364      0.85778752887250      4.85864306104840
  C   0.39146416452930      3.25657941574451      2.23646709005426
  N   1.70454547148567      2.57849439674045      2.22783400530736
  H   1.71093989970321      1.87785494458952      1.49186799332028
  H   1.81791349553780      2.06382668285538      3.09654488042785
  H   0.40646433563458      3.99558951694637      3.03989141852371
  H   0.29347852043749      3.80103640310672      1.29533980457602
  Cu  5.79855481018284      4.01094819341973      1.79212382391270
