18
Coordinates from ORCA-job orca
  C   -2.48689521141640      0.89186655635009      1.47158953202936
  C   -1.43015600867792      1.78153824082660      1.30816521629968
  C   -0.79195983882062      2.34313952645829      2.41486850509428
  C   -1.23773910372374      1.99720481441486      3.69161560451380
  C   -2.29346331484902      1.10789283698340      3.86048881244289
  C   -2.92034272412559      0.55132549529956      2.74937493181353
  H   -2.97554137906686      0.46864387369134      0.60271109439985
  H   -3.74510989699074     -0.13813211517077      2.87842130227964
  H   -1.09970121924457      2.04846542004681      0.31044863076965
  H   -0.75665444916193      2.43341743787960      4.56005744425784
  H   -2.63101378011599      0.85364045103090      4.85764455706093
  C   0.39147945474424      3.26991410095488      2.23623603419072
  N   1.70962633743095      2.60058061341949      2.22638147693385
  H   1.72130717987428      1.90098019573681      1.48954243414024
  H   1.82766347953627      2.08614633439735      3.09456980310074
  H   0.40233891684143      4.00830748505815      3.04021710167465
  H   0.28983372909305      3.81454824076611      1.29566340153536
  Cu  5.66629325867390      3.90840850185382      1.80673240745961
