18
Coordinates from ORCA-job orca
  C   -2.46085739769318      0.91319292354603      1.46854920134579
  C   -1.38774654361089      1.78197531915859      1.29948455714652
  C   -0.73880274410049      2.32981674496677      2.40548142799797
  C   -1.17762800007340      1.99031382618133      3.68539907102486
  C   -2.24936286832199      1.12142170123305      3.85825442860676
  C   -2.89269736849472      0.58018625316782      2.74884641782640
  H   -2.96225637722272      0.49952363483053      0.60253125361754
  H   -3.72978886624378     -0.09347041790467      2.88159402052386
  H   -1.05679866552845      2.04423367397919      0.30103172726227
  H   -0.68251344189399      2.41612034352347      4.55079124563520
  H   -2.58573173066416      0.87047420587731      4.85648489858493
  C   0.45740482695879      3.27103918849173      2.21955282235958
  N   1.81943529748529      2.65193910295279      2.21374058534455
  H   1.86580667739937      1.95354742532356      1.47731424814558
  H   1.96132247275775      2.14826694157325      3.08451448917832
  H   0.45202764806951      4.01511139807728      3.01683854647982
  H   0.34697641635177      3.80409507056178      1.27471021374063
  Cu  4.66117609482583      3.63010067445814      1.94960913517689
