18
Coordinates from ORCA-job orca
  C   -2.13277038331458      1.06304315951566      1.27144345576482
  C   -1.12761466592607      2.02236870022029      1.32448304800306
  C   -0.62958294884534      2.46434144875294      2.55525069744841
  C   -1.16355891400137      1.94179472724874      3.72947467095664
  C   -2.17554369489209      0.98718721029563      3.67850379435600
  C   -2.65631833976523      0.54231340294934      2.45159923860725
  H   -2.51651701539720      0.73453752751296      0.31405694502678
  H   -3.44280883362315     -0.20043174234193      2.41442273881021
  H   -0.75116795593997      2.46032411095303      0.40402998492234
  H   -0.78651981837160      2.28201516474307      4.68659445562005
  H   -2.58650642166974      0.58972769213194      4.59771344873069
  C   0.53143699727957      3.41918365190911      2.58337181311300
  N   1.80707778934635      2.67545545003322      2.33371887834362
  H   2.06599034571855      2.16236618995675      3.17405244195563
  H   2.56325959086093      3.33300894426956      2.15909837101433
  H   0.58843807710380      3.93751877454340      3.54143582735380
  H   0.43670479713606      4.16214800218655      1.79238624765709
  Cu  1.61596682430113      1.35098559511939      0.88309223231586
