18
Coordinates from ORCA-job orca
  C   -2.36286643471644      0.95110536150762      1.45550677940396
  C   -1.29090648321963      1.82161948183290      1.29443619976650
  C   -0.65130368726273      2.37093141065261      2.40623028053395
  C   -1.10390621323125      2.03707963367540      3.68337841995902
  C   -2.17517427132718      1.16638845112236      3.84719640512069
  C   -2.80531891408951      0.62065983864267      2.73277268202806
  H   -2.85547341749061      0.53506494542864      0.58586851456205
  H   -3.64195216624843     -0.05464394681067      2.85909419152107
  H   -0.95184912369669      2.08343149745561      0.29859582589547
  H   -0.61934232047192      2.46733503286982      4.55245506536249
  H   -2.52152015754478      0.91810662655858      4.84241867286695
  C   0.53703992302301      3.27892664063090      2.22987805420087
  N   1.83342542348743      2.52345543861861      2.22458007471995
  H   1.79369754038539      1.81070925398968      1.49785475623478
  H   1.91805648411430      2.01153052001646      3.10094285913650
  H   0.59288554618328      4.00746161266694      3.03685379310233
  H   0.47413299614512      3.81820902055177      1.28641995729776
  Cu  3.47034070596096      3.56051719058876      1.96024575828597
