18
Coordinates from ORCA-job orca
  C   -2.47524214650205      0.89345820503161      1.47077070753225
  C   -1.41959453276899      1.78431461409091      1.30702897917885
  C   -0.78214861211615      2.34666593765496      2.41371889089627
  C   -1.22673760660366      2.00016221182619      3.69065653084181
  C   -2.28139299082031      1.10965625478707      3.85974238770134
  C   -2.90786470190667      0.55244585824629      2.74871916323462
  H   -2.96363729369065      0.46964716630839      0.60205983366051
  H   -3.73174987485931     -0.13801342659300      2.87797376764173
  H   -1.08976706341268      2.05178556835200      0.30926756741976
  H   -0.74596354764164      2.43703570526206      4.55891617342761
  H   -2.61838096799209      0.85493680832811      4.85695021860408
  C   0.40006527178086      3.27698850703893      2.23451674206304
  N   1.72211630143749      2.61304696167895      2.22279743282595
  H   1.73744308903936      1.91436263805803      1.48525519489751
  H   1.84498448381051      2.09943865354982      3.09071979082739
  H   0.40951112809737      4.01500224620026      3.03872766928467
  H   0.29604970357200      3.82195658877411      1.29450836863437
  Cu  5.47227479057729      3.82499751140271      1.83239887132501
