18
Coordinates from ORCA-job orca
  C   -2.21166604095131      1.03375754411452      1.31208846707907
  C   -1.17182494053443      1.95501877042110      1.31916636810727
  C   -0.64064317765013      2.41637832428909      2.52504163827346
  C   -1.17089261038979      1.94551704792237      3.72481756116562
  C   -2.21513955460809      1.02618360285182      3.72102764602887
  C   -2.73440480235988      0.56695504437743      2.51522087471188
  H   -2.61958398705946      0.68595901659073      0.37151075433632
  H   -3.54824327576509     -0.14689182552795      2.51191961736540
  H   -0.77246056601865      2.32740641274676      0.38205782131755
  H   -0.76861433871338      2.30402014573733      4.66508272128486
  H   -2.62421954609212      0.67164995027609      4.65848496137380
  C   0.52230287487621      3.37046018204478      2.52307431622352
  N   1.83222052809996      2.65781470443816      2.32873915340279
  H   1.90307078382625      1.91602683205650      3.02312497946274
  H   2.58524165134928      3.30837033079448      2.54656527186687
  H   0.56313933345459      3.90985154181567      3.47076881323323
  H   0.42867689428135      4.09740997366578      1.71792238752810
  Cu  2.28300620425485      1.88200041138464      0.57811493723778
