18
Coordinates from ORCA-job orca
  C   -2.46149158750595      0.90358339054138      1.46869302410577
  C   -1.39968015121100      1.78706226534184      1.30494472852593
  C   -0.76032059662792      2.34548516174649      2.41227339706045
  C   -1.20655665636005      2.00265370776066      3.68940176557392
  C   -2.26737398373172      1.11942112597585      3.85806721254577
  C   -2.89688852236163      0.56634913351157      2.74670924043903
  H   -2.95224079174576      0.48244472545184      0.60005415252048
  H   -3.72548919378603     -0.11845493667204      2.87581332890155
  H   -1.06721777417883      2.05181756219851      0.30740527216401
  H   -0.72302864511851      2.43651837859574      4.55756554743983
  H   -2.60653973281623      0.86700393691297      4.85508257999010
  C   0.42742490831052      3.27308166955243      2.23287277428771
  N   1.75061380768761      2.60723121340905      2.22207169695826
  H   1.77051329388011      1.91137293848822      1.48232045713541
  H   1.87653688667897      2.09529701676700      3.09024624419195
  H   0.43853678005773      4.01056726836512      3.03716288553793
  H   0.32559165200303      3.81662632375121      1.29214635467109
  Cu  5.11757573682630      3.76982712829980      1.86189762794782
