18
Coordinates from ORCA-job orca
  C   -2.45985807182464      0.93606290349777      1.46479550364449
  C   -1.36403068813742      1.77559064090749      1.29425701960182
  C   -0.70356315020876      2.30295184664812      2.40216300584554
  C   -1.14334607206987      1.97381327481779      3.68350273442264
  C   -2.23747829603538      1.13344238179076      3.85593691578234
  C   -2.89702850131556      0.61326429500674      2.74587137369669
  H   -2.97405484120570      0.53712528012648      0.59954915806547
  H   -3.75201120191570     -0.03737303052520      2.87903979920497
  H   -1.02730007528727      2.03143833062193      0.29641410273837
  H   -0.63486360818445      2.38525141170599      4.54775520306999
  H   -2.57846684915180      0.88849183696789      4.85392367666132
  C   0.51063701262687      3.24843921525584      2.21196127123837
  N   1.90785500781680      2.65158865436228      2.22063454121738
  H   1.95578957183989      1.93680116305760      1.49812948643008
  H   2.03931915799283      2.15547580971977      3.09906061431155
  H   0.49919718902599      3.99973393101805      3.00052335110655
  H   0.40753718342229      3.76645303917133      1.25959300106465
  Cu  4.09163166261230      3.62933702584763      1.98161753189563
