18
Coordinates from ORCA-job orca
  C   -2.44828445839968      0.90275359501388      1.46762422213446
  C   -1.38380005874073      1.78308716396219      1.30522832038058
  C   -0.74861727739419      2.34239172144187      2.41417218095304
  C   -1.19744453979269      2.00304639021865      3.69091074849245
  C   -2.26111884065718      1.12288495446384      3.85773229455120
  C   -2.88828762026527      0.56956492125671      2.74521067469508
  H   -2.93724813620234      0.48060665933066      0.59853409922807
  H   -3.71894442660662     -0.11296161586536      2.87303588932263
  H   -1.04726359633284      2.04521884788441      0.30845429448960
  H   -0.71518206807373      2.43750507218864      4.55935399739753
  H   -2.60390803605390      0.87272317452707      4.85401784477668
  C   0.44103648961626      3.28006441280875      2.23534022622601
  N   1.78394009650642      2.63881130802317      2.21489213557401
  H   1.81660227962085      1.95055254224806      1.46852860214317
  H   1.92242385733691      2.12164836735123      3.07808567340397
  H   0.44642887577527      4.01318887700527      3.04316998797038
  H   0.33030933561906      3.82774669803994      1.29844820899635
  Cu  4.84932355404496      3.64905492009881      1.88198888926209
