18
Coordinates from ORCA-job orca
  C   -2.10331380147424      1.07469562365792      1.25355171566824
  C   -1.11432255544588      2.05234414584685      1.32114732747490
  C   -0.62697148502488      2.48808741928096      2.56266478016013
  C   -1.15944975336490      1.94454798439103      3.72731756728508
  C   -2.15527601595367      0.97338453849810      3.65908597090439
  C   -2.62103003887124      0.53097550700498      2.42565721017526
  H   -2.47947360986257      0.75416077128551      0.29058440850881
  H   -3.39255012442890     -0.22644594259947      2.37705596254174
  H   -0.75617488505539      2.52120703324313      0.40809908031680
  H   -0.79079956995119      2.27715146001114      4.69018117308732
  H   -2.56288552180311      0.55771159928052      4.57167363189752
  C   0.53930072866269      3.43879513030306      2.60024630986008
  N   1.79786760608803      2.67235465708346      2.33367745302564
  H   2.12892647593610      2.24879718666385      3.19749363921834
  H   2.53539665625358      3.29677288150517      2.01887460926338
  H   0.60295518540114      3.94871876561000      3.56192337981196
  H   0.44722390093822      4.18795140258288      1.81492964408478
  Cu  1.35054223795624      1.18667784635077      1.08056442671543
