18
Coordinates from ORCA-job orca
  C   -2.50491475480079      0.88912125722405      1.47329364149665
  C   -1.44651583839385      1.77684069431233      1.30988619806026
  C   -0.80685354615556      2.33736237642876      2.41637488222500
  C   -1.25385950552143      1.99243988038253      3.69304582606664
  C   -2.31124073334326      1.10510709853322      3.86203880445279
  C   -2.93913482806008      0.54943490416777      2.75104340650699
  H   -2.99427381921188      0.46675648301826      0.60437664929812
  H   -3.76515136210942     -0.13852911513188      2.88013466146599
  H   -1.11549765436008      2.04294739104772      0.31211557131099
  H   -0.77199689339635      2.42779154058864      4.56151462195373
  H   -2.64930846412673      0.85169728496599      4.85925304044945
  C   0.37882417138008      3.25947174279741      2.23782707315375
  N   1.69256121156712      2.58373413340132      2.22860331174713
  H   1.69983101012102      1.88292841188728      1.49280963918439
  H   1.80735219284555      2.06925441259264      3.09723429068394
  H   0.39243402201409      3.99825005880981      3.04155151097091
  H   0.27945283263413      3.80442183722820      1.29707033070285
  Cu  5.94825738891820      4.02885761774309      1.77655483026683
