18
Coordinates from ORCA-job orca
  C   -2.45719492106016      0.90110167592938      1.46780160450195
  C   -1.39700651449137      1.78677635209518      1.30570794399539
  C   -0.76101501848627      2.34697625533176      2.41405887251959
  C   -1.20863934064475      2.00363426882021      3.69049696154332
  C   -2.26794797092382      1.11824458065056      3.85749271454043
  C   -2.89422296026491      0.56344032161267      2.74517373941986
  H   -2.94537007938911      0.47853689252465      0.59840838472422
  H   -3.72155997270506     -0.12312828623656      2.87298580182523
  H   -1.06319691826369      2.05186179286885      0.30870754188138
  H   -0.72750970405525      2.43874255734754      4.55935372034982
  H   -2.60837321771918      0.86540557207172      4.85396694996641
  C   0.42525886732566      3.27803392610802      2.23596673940499
  N   1.75208313104576      2.61788086120356      2.22282353164830
  H   1.77374791238216      1.92225277725948      1.48289355665255
  H   1.88156375934755      2.10615780499007      3.09061864348613
  H   0.43443848805890      4.01411157836560      3.04153579550183
  H   0.32116558046094      3.82323542449402      1.29645193115298
  Cu  5.10374430938321      3.73462365456089      1.85028385688263
