18
Coordinates from ORCA-job orca
  C   -2.45845547979013      0.93638875314876      1.46482949772252
  C   -1.36289590915003      1.77620061567532      1.29397860053131
  C   -0.70247319885166      2.30389491947541      2.40175230850556
  C   -1.14204502596657      1.97491987125315      3.68321953382506
  C   -2.23588100270113      1.13424522911518      3.85593315884150
  C   -2.89535635139089      0.61366659174840      2.74601913854013
  H   -2.97264066706339      0.53712485694127      0.59973264538222
  H   -3.75008635930777     -0.03725741044193      2.87940003692263
  H   -1.02633978716376      2.03194257255119      0.29605391986411
  H   -0.63356618530250      2.38666964379192      4.54732330849329
  H   -2.57665514335784      0.88935166197354      4.85400359438433
  C   0.51163979907139      3.24905840393274      2.21161778219747
  N   1.90819109783133      2.65004430133611      2.22016109903865
  H   1.95490466511990      1.93608051431160      1.49667619840691
  H   2.03774106712477      2.15201293320338      3.09785937263259
  H   0.50116723027998      4.00000348137357      3.00047251460138
  H   0.40924383087773      3.76733702809805      1.25935550861885
  Cu  4.07347284974101      3.62620404251061      1.98634007148936
