18
Coordinates from ORCA-job orca
  C   -2.45896947503209      0.90313139726045      1.47047734954683
  C   -1.39775255107183      1.78651779431793      1.30219344894833
  C   -0.75487720454218      2.34443786832527      2.40739819865818
  C   -1.19380050558970      2.00038792712872      3.68656945500156
  C   -2.25370191416755      1.11702609785867      3.85945806880533
  C   -2.88826393939367      0.56511669607768      2.75034812149824
  H   -2.95373662447726      0.48231225015145      0.60401367272867
  H   -3.71621094284041     -0.11982724528799      2.88278574925030
  H   -1.06969429131917      2.05203075606696      0.30347822339137
  H   -0.70610930016068      2.43383564799457      4.55254958851977
  H   -2.58802253629006      0.86343109570419      4.85777560364540
  C   0.43139318643100      3.28217422974127      2.22398747336464
  N   1.77208579277886      2.64037272163272      2.21329878802987
  H   1.80817848080487      1.94985741696230      1.46915367353616
  H   1.90419040413310      2.12490879897490      3.07851068563516
  H   0.43356393937131      4.02214518052192      3.02581933897338
  H   0.32265268651268      3.82250048926883      1.28246928675447
  Cu  4.94904022485336      3.65752888729792      1.92444156370956
