18
Coordinates from ORCA-job orca
  C   -2.46078060847463      0.93550895447105      1.46475312754292
  C   -1.36483980485491      1.77497532272194      1.29466562646268
  C   -0.70467750809546      2.30231453001409      2.40277683447337
  C   -1.14492514661172      1.97311085486732      3.68392981383735
  C   -2.23921973560193      1.13283642508665      3.85595106650776
  C   -2.89845642693230      0.61273117425296      2.74566210142801
  H   -2.97469067576069      0.53664939852826      0.59929421974144
  H   -3.75357106925960     -0.03780018594138      2.87851301520789
  H   -1.02775716063898      2.03085328689294      0.29694320456893
  H   -0.63672755501061      2.38446836286797      4.54839058557305
  H   -2.58060846619860      0.88791217049557      4.85381134163507
  C   0.50954386913880      3.24806436466398      2.21266605277919
  N   1.90714128410899      2.65291001285512      2.22079309540431
  H   1.95590086814454      1.93770044763655      1.49884743554176
  H   2.04056964571490      2.15818497583211      3.09963203900026
  H   0.49751224181115      3.99930075704974      3.00132899485803
  H   0.40560338033929      3.76631979016843      1.26047879493554
  Cu  4.10994829818222      3.63184736753492      1.97629094050028
