18
Coordinates from ORCA-job orca
  C   -2.12335477664748      1.06603537297419      1.26674505398053
  C   -1.12319055601006      2.03086471499078      1.32456056569740
  C   -0.62915851224621      2.47156476440613      2.55834495978567
  C   -1.16304668368539      1.94304894482639      3.72967019874519
  C   -2.17030342963898      0.98356548678304      3.67335918369896
  C   -2.64602567532696      0.53901052242905      2.44437101443295
  H   -2.50397880754522      0.73939849637603      0.30750011820807
  H   -3.42826462539491     -0.20797417486591      2.40369658008315
  H   -0.75162153975632      2.47745240468461      0.40611033456284
  H   -0.78896847141037      2.28127209935493      4.68860234386910
  H   -2.58088436558873      0.58106866954594      4.59052974772087
  C   0.53326673789946      3.42512608299742      2.58876324076671
  N   1.80356085389436      2.67478168424902      2.33296052851944
  H   2.08252727694655      2.18555954077617      3.18094529307912
  H   2.55635068563690      3.32411719183788      2.11878934587071
  H   0.59299066711043      3.94095858544476      3.54787262049723
  H   0.43910352364809      4.16985320778267      1.79939455597570
  Cu  1.54096312811489      1.30218441540662      0.93251260450598
