18
Coordinates from ORCA-job orca
  C   -2.38962854594854      0.94161812028654      1.45892985219446
  C   -1.30664993118193      1.79862611763032      1.29792881748064
  C   -0.66609878317783      2.34339566277482      2.41056831619373
  C   -1.12159456790195      2.01690263964881      3.68782943729320
  C   -2.20407159314132      1.15974867615258      3.85105394288701
  C   -2.83886968675788      0.62012959756551      2.73622732110885
  H   -2.88551023825678      0.52913722693335      0.58943226779603
  H   -3.68453756955329     -0.04393977070204      2.86225297603323
  H   -0.96213875116643      2.05440090942550      0.30254748403144
  H   -0.63311720831181      2.44307079620965      4.55653616038394
  H   -2.55542789073803      0.91717728568622      4.84594623832241
  C   0.53162290343725      3.27063592510813      2.23136250297641
  N   1.87426926446417      2.57795884226777      2.21194453561801
  H   1.85664594823152      1.86992217088042      1.47947935535547
  H   1.97687654280649      2.05686079490487      3.08121256315145
  H   0.56708380546384      3.99803190715292      3.04050294809944
  H   0.44583837995962      3.81367217986169      1.29185754650607
  Cu  3.63527335177324      3.56053892821149      1.95911602456646
