18
Coordinates from ORCA-job orca
  C   -2.38057120787668      0.94480861668091      1.45772661091097
  C   -1.30180417234931      1.80703581292304      1.29658471345608
  C   -0.66148503862305      2.35334883229107      2.40888548231935
  C   -1.11540031794789      2.02375975902896      3.68618189701135
  C   -2.19357327061249      1.16133729601464      3.84970323142565
  C   -2.82687605129697      0.61961575386656      2.73506760374569
  H   -2.87542545905674      0.53108310248843      0.58824018094344
  H   -3.66905357353603     -0.04882841967572      2.86128801397333
  H   -0.95960905778657      2.06529993541841      0.30100342546038
  H   -0.62822248303964      2.45129207133870      4.55500537259359
  H   -2.54276757981332      0.91627516402175      4.84474242418461
  C   0.53271129350833      3.27483706869598      2.23033558459980
  N   1.86048592905697      2.56128951921545      2.21662735068300
  H   1.83460198790200      1.85047663786520      1.48709604202055
  H   1.95566531837980      2.04358209433761      3.08874865502364
  H   0.57436450831794      4.00328103087664      3.03823946245469
  H   0.45459492160362      3.81597025877849      1.28908335899525
  Cu  3.58232968317039      3.55342347583248      1.96016888019694
