18
Coordinates from ORCA-job orca
  C   -2.10427748865094      1.07277967045292      1.25546710597505
  C   -1.11428215894719      2.04914579072501      1.32233145213185
  C   -0.62717229588188      2.48616356010130      2.56304156691319
  C   -1.16084475709894      1.94518990147998      3.72830453113619
  C   -2.15806806629409      0.97540243276920      3.66113517470252
  C   -2.62370210853114      0.53178631720048      2.42809069238328
  H   -2.47988258118149      0.75081116034133      0.29275379779989
  H   -3.39639448769724     -0.22449967523269      2.38018711374899
  H   -0.75389783139431      2.51514216900577      0.40864498110582
  H   -0.79250423540699      2.27909876579053      4.69084843660017
  H   -2.56704120959528      0.56199715322241      4.57414513570342
  C   0.53864472119593      3.43713060084717      2.59972585770704
  N   1.79810986294734      2.67279022462056      2.33207240127079
  H   2.12274924393374      2.23908039016273      3.19339255996557
  H   2.53812647427175      3.30092376447502      2.03055101802016
  H   0.60288546769826      3.94663860519644      3.56163398921338
  H   0.44559608747584      4.18667737022536      1.81487367748850
  Cu  1.37192079315662      1.20162980861631      1.05752879813397
