18
Coordinates from ORCA-job orca
  C   -2.48767391057556      0.89132119137313      1.47172334327059
  C   -1.43125795966691      1.78137330402528      1.30826827448421
  C   -0.79315466404001      2.34316811029525      2.41493503053983
  C   -1.23879453426840      1.99705356021011      3.69168944482836
  C   -2.29419573149941      1.10736493370520      3.86060545556203
  C   -2.92094064114255      0.55058903779174      2.74951932662990
  H   -2.97621839750172      0.46795360654388      0.60285662978411
  H   -3.74545715755849     -0.13916396831106      2.87859397697807
  H   -1.10095344755316      2.04843372636461      0.31053552657050
  H   -0.75782140575472      2.43341445140661      4.56012079156091
  H   -2.63160747918438      0.85298495778867      4.85777713691932
  C   0.39000838322242      3.27013078611518      2.23628249461334
  N   1.70810998901611      2.60089508867393      2.22636809006119
  H   1.71978646686498      1.90129931800054      1.48952281329761
  H   1.82617164169661      2.08640072349574      3.09451916176600
  H   0.40079352899528      4.00852951022411      3.04027159426913
  H   0.28824170840782      3.81480276447177      1.29573487250844
  Cu  5.68492904054279      3.91133690782259      1.80540432635306
