18
Coordinates from ORCA-job orca
  C   -2.10209968046394      1.07638494718028      1.25167821573506
  C   -1.11408756058753      2.05529186775571      1.32009861221934
  C   -0.62673698632764      2.48993085052075      2.56248314296541
  C   -1.15829817520268      1.94399437848975      3.72647375963135
  C   -2.15277440047358      0.97150730905317      3.65707822161517
  C   -2.61840638224175      0.53014838033013      2.42323130787493
  H   -2.47863015361305      0.75719121669007      0.28841746542015
  H   -3.38879188728810     -0.22836243653823      2.37386770789384
  H   -0.75813717378506      2.52700532623041      0.40770499505719
  H   -0.78951073374897      2.27536556616171      4.68969285663331
  H   -2.55924198616876      0.55372990759972      4.56921131424459
  C   0.54003830715831      3.44036292949536      2.60097050088650
  N   1.79767380611172      2.67192752106894      2.33501767345955
  H   2.13554130807389      2.25850060222638      3.20099076622967
  H   2.53248842111786      3.29248481883100      2.00675011987195
  H   0.60328514505627      3.95048620926776      3.56251385153236
  H   0.44873146587315      4.18931502360884      1.81538913400617
  Cu  1.32892209650986      1.17262359202811      1.10315864472329
