18
Coordinates from ORCA-job orca
  C   -2.35532673564215      0.95499528785404      1.45422995647793
  C   -1.28578804332522      1.82841430229168      1.29315794468963
  C   -0.64579363729733      2.37833688603447      2.40468849062168
  C   -1.09771438665332      2.04239218392790      3.68178161408092
  C   -2.16646697408606      1.16880744344460      3.84578184090795
  C   -2.79601381727990      0.62221220047933      2.73145607375600
  H   -2.84747515032910      0.53858872780687      0.58451729591817
  H   -3.63075323406065     -0.05538952257591      2.85784607995586
  H   -0.94812845374793      2.09173128380167      0.29718276248218
  H   -0.61364159201345      2.47311939493584      4.55097190325299
  H   -2.51140122096662      0.91907085970949      4.84112207586835
  C   0.54007231019953      3.27894692812485      2.22957341375684
  N   1.82099765875701      2.50370194420406      2.22980382585224
  H   1.77591694167823      1.78904323150312      1.50549930679355
  H   1.90234135418330      1.99688430357870      3.10923526304498
  H   0.60241694931925      4.00807849697247      3.03555295371559
  H   0.48516341979257      3.81639859066962      1.28455282729416
  Cu  3.41156004147214      3.57255546723589      1.95777466152938
