18
Coordinates from ORCA-job orca
  C   -2.41341781726602      0.93522767628593      1.46190433803353
  C   -1.32235660773476      1.78185803966235      1.29939891567218
  C   -0.67929865535913      2.32253238522800      2.41185704790948
  C   -1.13498847497063      2.00135670143783      3.68980552958303
  C   -2.22552797785424      1.15458361920154      3.85413727530200
  C   -2.86558861644203      0.61999811034382      2.73981252451012
  H   -2.91304516649298      0.52566552014259      0.59315875613021
  H   -3.71756097438608     -0.03579075975877      2.86676384783815
  H   -0.97494635525250      2.03296511989907      0.30394209720475
  H   -0.64167559351388      2.42383094483564      4.55747468845528
  H   -2.57875291165490      0.91596521370036      4.84933689754720
  C   0.52773967167228      3.26088435017652      2.23046388905418
  N   1.90164231143004      2.61403405425321      2.20443570127323
  H   1.90591238388148      1.91269396699979      1.46569097725731
  H   2.01849587874512      2.08739893412723      3.06834840560049
  H   0.54800579512332      3.98853603879636      3.03995063503602
  H   0.42750866276560      3.80450621077357      1.29264851607140
  Cu  3.77781987730967      3.58164188389345      1.96559824751957
