18
Coordinates from ORCA-job orca
  C   -2.45629506442383      0.90259381000838      1.46799575069672
  C   -1.39515649685030      1.78690487962014      1.30481768779221
  C   -0.75723184404864      2.34585165745451      2.41264186738134
  C   -1.20309733416792      2.00231919451353      3.68961874176027
  C   -2.26337009212855      1.11833273043976      3.85762388012761
  C   -2.89194041720469      0.56500121402540      2.74584229621344
  H   -2.94629934694104      0.48108886970344      0.59913459993154
  H   -3.72010692388783     -0.12040521917997      2.87448746007991
  H   -1.06249853691598      2.05226866168914      0.30752333027298
  H   -0.72027976375234      2.43655639388842      4.55795967241808
  H   -2.60283839776319      0.86545343137121      4.85439904826667
  C   0.42920558494600      3.27873275144087      2.23284857019697
  N   1.76013591176147      2.62361952735752      2.21855251275075
  H   1.78216949397935      1.92461746879387      1.48178347201091
  H   1.89460202416150      2.11614347575878      3.08808089323426
  H   0.43746483690364      4.01577154185863      3.03743661903044
  H   0.32288836100585      3.82304825008299      1.29314174357098
  Cu  5.03261343532710      3.70998937117106      1.87084014426203
