18
Coordinates from ORCA-job orca
  C   -2.46397344502947      0.90355280928702      1.46930297159628
  C   -1.40125998541345      1.78579395118555      1.30497335684652
  C   -0.76050866067789      2.34379118903099      2.41177367372880
  C   -1.20660867991261      2.00123328044487      3.68911896892086
  C   -2.26827612164861      1.11923267053058      3.85849308905384
  C   -2.89914500693185      0.56686509647562      2.74753430437535
  H   -2.95576929410227      0.48308518412981      0.60093123608610
  H   -3.72863457724825     -0.11676957777318      2.87711587972109
  H   -1.06925163460464      2.05030151962013      0.30720096272349
  H   -0.72231115670753      2.43481809797172      4.55701472296354
  H   -2.60721660657923      0.86739482666134      4.85573066217073
  C   0.42675455391863      3.27127478682915      2.23194804992200
  N   1.75048988133651      2.60688978861486      2.22109640085761
  H   1.77170866795950      1.91142755382903      1.48093496967427
  H   1.87632540023659      2.09338006261646      3.08842800942422
  H   0.43753684760262      4.00971524964294      3.03546375228270
  H   0.32463566431755      3.81528876518451      1.29145092781291
  Cu  5.13546958348501      3.78061275571617      1.86621635183668
