18
Coordinates from ORCA-job orca
  C   -2.09826728519534      1.07818426603910      1.24822416852529
  C   -1.11119802951697      2.05852115479550      1.31885970767246
  C   -0.62533523836366      2.49174381197629      2.56336626047881
  C   -1.15767308040950      1.94292486255547      3.72567653181149
  C   -2.15068765066248      0.96903854102108      3.65335391380424
  C   -2.61459151231684      0.52903024063815      2.41842060463101
  H   -2.47429203865907      0.76103103215875      0.28410364951515
  H   -3.38372655826500     -0.23058443973586      2.36706056504585
  H   -0.75759137317214      2.53462276026452      0.40788674997157
  H   -0.78979574984855      2.27246528528498      4.68983256907310
  H   -2.55703928592763      0.54869459385774      4.56435259232628
  C   0.54194244991512      3.44242134817550      2.60452819834340
  N   1.79814121223385      2.67287461519529      2.33412261054696
  H   2.15398257229265      2.27954215722835      3.20204012182423
  H   2.52460310325335      3.28695560494838      1.97690281051975
  H   0.60582208221038      3.94887907162857      3.56783132241430
  H   0.44949025082466      4.19420496005709      1.82182669179063
  Cu  1.28618156160719      1.14733814391100      1.14633922170533
