18
Coordinates from ORCA-job orca
  C   -2.45099206624040      0.91442286249943      1.46691323155337
  C   -1.37077567224806      1.77498334836724      1.30234428484633
  C   -0.72805196024772      2.32234406606515      2.41191624625919
  C   -1.17665051556436      1.99130850478035      3.69014734522982
  C   -2.25604025330665      1.13074248753847      3.85786399789668
  C   -2.89448338457919      0.58991947698991      2.74553435258316
  H   -2.94857896445858      0.50030269051065      0.59897140345282
  H   -3.73712291448440     -0.07749853516337      2.87455308085750
  H   -1.03008162944701      2.03106325907270      0.30566023495930
  H   -0.68443435484531      2.41673262622132      4.55722133787820
  H   -2.60158796428126      0.88551443295986      4.85432331164520
  C   0.47624667237618      3.26568664814201      2.22912687872359
  N   1.85062820682257      2.65454680273360      2.20733100164802
  H   1.89330236854748      1.96297395161007      1.46381831297691
  H   1.99756227467634      2.14071519515675      3.07173419156149
  H   0.47528343254267      4.00018637214867      3.03458093285484
  H   0.36097266657555      3.80798317902437      1.29065837211588
  Cu  4.46476948816268      3.61596064134088      1.93202977295526
