18
Coordinates from ORCA-job orca
  C   -2.36567017870774      0.94999971667476      1.45587672746905
  C   -1.29275849039699      1.81936679686471      1.29478324009811
  C   -0.65308679488291      2.36826354967994      2.40665198176941
  C   -1.10581778578907      2.03501334950716      3.68383146461535
  C   -2.17805264745995      1.16545968639049      3.84761180158742
  C   -2.80863771399478      0.62027770041735      2.73316227256693
  H   -2.85860041345379      0.53426657980230      0.58627081428637
  H   -3.64602704027777     -0.05409943491777      2.85947848907146
  H   -0.95328606164594      2.08070185238297      0.29897862447928
  H   -0.62090345363963      2.46490668690214      4.55286809720541
  H   -2.52479162710997      0.91760619463865      4.84280686447659
  C   0.53613993318816      3.27865069387671      2.22988450191864
  N   1.83777652090385      2.53000976518002      2.22324350664284
  H   1.80006001507674      1.81748093192410      1.49612935143189
  H   1.92377375594196      2.01701765205618      3.09890614843444
  H   0.58959989836548      4.00721980039936      3.03698707733471
  H   0.47069215743332      3.81822155855447      1.28676953127331
  Cu  3.48955535644938      3.55752492966511      1.96048779533715
