18
Coordinates from ORCA-job orca
  C   -2.45922654444708      0.91502990639819      1.46892039073429
  C   -1.38339648332508      1.78025187055886      1.29897968785851
  C   -0.73379878773819      2.32706824502192      2.40492293168266
  C   -1.17313703415669      1.99035248822576      3.68525977292543
  C   -2.24752640560842      1.12488915668057      3.85870216492951
  C   -2.89214061778988      0.58466395658095      2.74957370928582
  H   -2.96172189068516      0.50180507579638      0.60335863572592
  H   -3.73116601203259     -0.08647285820707      2.88282670575128
  H   -1.05126465189882      2.04041858690270      0.30042466973110
  H   -0.67664939079008      2.41547946352910      4.55014721624369
  H   -2.58468148835389      0.87565487880506      4.85707314386238
  C   0.46582689354609      3.26878723668939      2.21880497760082
  N   1.83285975870475      2.65247721384763      2.21068037213825
  H   1.88157530529452      1.95963410884318      1.46903121819017
  H   1.97262949115571      2.14152371587765      3.07770986544627
  H   0.46104471669743      4.01123597067162      3.01732455926704
  H   0.35509790229085      3.80299456343758      1.27490237850410
  Cu  4.56564066913707      3.62209443033852      1.96608589012027
