18
Coordinates from ORCA-job orca
  C   -2.48858540226293      0.89093692856964      1.47185241029038
  C   -1.43240927977869      1.78125580572048      1.30842381496687
  C   -0.79432595050983      2.34321432180512      2.41504196624828
  C   -1.24002409347994      1.99698877711821      3.69176755560573
  C   -2.29518186696437      1.10703865803144      3.86070013917601
  C   -2.92176213569942      0.55002523726989      2.74963464830427
  H   -2.97701598268325      0.46749180845793      0.60295886414125
  H   -3.74603004801506     -0.14002295546727      2.87870852845105
  H   -1.10224133022084      2.04846810121415      0.31067911682980
  H   -0.75924062551339      2.43354746898620      4.56021247515024
  H   -2.63253045112686      0.85263132340882      4.85788694905563
  C   0.38898193569493      3.26990383483886      2.23641076753071
  N   1.70673898575890      2.60012532338462      2.22643015510148
  H   1.71827107662288      1.90054775399247      1.48957900564123
  H   1.82482158010648      2.08558138466405      3.09453720871326
  H   0.40010071966443      4.00849377083077      3.04023547333029
  H   0.28744958987432      3.81491851219018      1.29602080365955
  Cu  5.70294870853335      3.91674195498172      1.80364840780057
