18
Coordinates from ORCA-job orca
  C   -2.51939292228971      0.89583156656598      1.47338947966712
  C   -1.45208966064292      1.77295543157031      1.31063541536881
  C   -0.80809096223702      2.32784410444007      2.41744395588142
  C   -1.25994537727732      1.98811551075687      3.69382223291368
  C   -2.32618884609097      1.11134415598565      3.86219847682717
  C   -2.95833433508404      0.56118890841783      2.75085688974320
  H   -3.01191281236327      0.47776776005092      0.60417000901010
  H   -3.79119374987672     -0.11857365600489      2.87946279283381
  H   -1.11731405059202      2.03511310548645      0.31307114194758
  H   -0.77472462044578      2.41917081088061      4.56257542397938
  H   -2.66777686115393      0.86183355274007      4.85920244669925
  C   0.38672084568999      3.23784709622898      2.23973291536207
  N   1.69326786172334      2.54888001708317      2.23404793798628
  H   1.69450664953507      1.84708604630855      1.49913703167560
  H   1.80057057865317      2.03418513104777      3.10352860205029
  H   0.40609753054016      3.97764118511987      3.04245482673360
  H   0.29442990359310      3.78227213021867      1.29791536346276
  Cu  6.05133625831964      4.16738515310017      1.75108334785418
