18
Coordinates from ORCA-job orca
  C   -2.34204918160534      0.96662444706182      1.44841692450216
  C   -1.27466369708918      1.84332586315212      1.29092144204153
  C   -0.63369678477508      2.38963911748330      2.40414556640608
  C   -1.08646410015376      2.04707161774888      3.67970500822733
  C   -2.15278208988693      1.17020763426076      3.84040602125977
  C   -2.78156500288933      0.62677582396414      2.72407230072106
  H   -2.83361706468014      0.55346072624275      0.57683246705524
  H   -3.61461026424509     -0.05337130695072      2.84777429580055
  H   -0.93833962810754      2.11168558536225      0.29575012321544
  H   -0.60326657238834      2.47494404056497      4.55090652780006
  H   -2.49669906427405      0.91576774552610      4.83490445544637
  C   0.54835991426335      3.27541920051386      2.23465074291361
  N   1.80235241652395      2.46549385411425      2.25054614613899
  H   1.73887677950610      1.72762490447882      1.55187988841618
  H   1.89504998960812      1.99576012684004      3.14853814265038
  H   0.62049363285614      4.00719236889541      3.03747431202932
  H   0.50878643902310      3.80694744502528      1.28541161429571
  Cu  3.28379970831432      3.60331881571469      1.89239231107872
