18
Coordinates from ORCA-job orca
  C   -2.45753567540667      0.92287228676188      1.46594632229878
  C   -1.36829735445344      1.77176291351872      1.29992760996077
  C   -0.71828270544695      2.30968576439229      2.40942940029257
  C   -1.16518236307569      1.98092040098270      3.68857639477355
  C   -2.25337198813308      1.13179374159365      3.85720651415189
  C   -2.90087633959925      0.60095115742753      2.74521179832679
  H   -2.96216143546485      0.51607786379792      0.59864715832338
  H   -3.75084545550049     -0.05690582900653      2.87517470878337
  H   -1.02748590607096      2.02662812389499      0.30308176237731
  H   -0.66611208883067      2.39959868075071      4.55492309151936
  H   -2.59898634889942      0.88805694842512      4.85396560833610
  C   0.49158092315563      3.25503550158602      2.22380532483986
  N   1.87929467226916      2.65680611490108      2.21240816759016
  H   1.92727493322410      1.95589357475497      1.47748264076367
  H   2.02485743602404      2.15174260918382      3.08263641507650
  H   0.48431531924080      3.99594596310043      3.02287454068007
  H   0.37864755248028      3.78805032867465      1.28019695550700
  Cu  4.32313225448793      3.63297186525817      1.94323387639656
