18
Coordinates from ORCA-job orca
  C   -2.10536794306262      1.07078777298534      1.25737264776835
  C   -1.11418108041320      2.04568730227544      1.32347549353983
  C   -0.62724617098860      2.48396437285505      2.56336713742737
  C   -1.16223164131806      1.94566123267895      3.72924556068777
  C   -2.16102217288511      0.97743129930471      3.66316238152200
  C   -2.62662652347970      0.53266680182839      2.43051706508980
  H   -2.48050656430580      0.74745994815193      0.29492418312231
  H   -3.40066621667236     -0.22230089954390      2.38331865946336
  H   -0.75167618339555      2.50881251906801      0.40913594819498
  H   -0.79415983017295      2.28084888915684      4.69146062324564
  H   -2.57145516797161      0.56642504138626      4.57660136340685
  C   0.53804227261619      3.43531780924990      2.59925444911266
  N   1.79858778361812      2.67339877628417      2.33042004353962
  H   2.11722458345104      2.22984461195148      3.18906965099128
  H   2.54071868592527      3.30523730436203      2.04188784400310
  H   0.60279110718079      3.94423890633951      3.56148318932762
  H   0.44387854245615      4.18538974742967      1.81501503454857
  Cu  1.39386194941799      1.21701657423605      1.03501701500862
