18
Coordinates from ORCA-job orca
  C   -2.36018918915421      0.95229033007198      1.45511793839412
  C   -1.28911525726144      1.82386858063147      1.29405666939820
  C   -0.64949568438537      2.37350956414436      2.40576835549817
  C   -1.10193018074304      2.03902264199618      3.68289206666677
  C   -2.17229080883017      1.16727525852292      3.84676099158030
  C   -2.80209957824827      0.62110831680628      2.73236803802120
  H   -2.85254549439741      0.53601886184272      0.58545201991477
  H   -3.63803523809597     -0.05504577227075      2.85870484654617
  H   -0.95048937406278      2.08615859848137      0.29817578298167
  H   -0.61763344502605      2.46955311558080      4.55200564402681
  H   -2.51821284973468      0.91854872656137      4.84201670174571
  C   0.53799396463312      3.27906998862629      2.22982894020547
  N   1.82915399529170      2.51686424643960      2.22607430264361
  H   1.78754043597155      1.80375726803752      1.49988179619730
  H   1.91254076703629      2.00624778040924      3.10325649352744
  H   0.59614301849565      4.00766734421682      3.03659086753532
  H   0.47768532318498      3.81793129330664      1.28595439046022
  Cu  3.45094502532643      3.56404186659386      1.95982244465512
