18
Coordinates from ORCA-job orca
  C   -2.15847640962074      1.05988776387955      1.28133692955668
  C   -1.14266775378822      2.00742862663049      1.32341039461826
  C   -0.63090024915616      2.44839276028495      2.54683349049492
  C   -1.16169011073871      1.93588972032502      3.72787287015886
  C   -2.18424782408345      0.99247256280871      3.68894218278995
  C   -2.67989313281937      0.54977211016972      2.46706939115708
  H   -2.55100850965751      0.73003426230394      0.32793356943327
  H   -3.47548776512581     -0.18367440154436      2.43811235197426
  H   -0.75754075716354      2.42744669539054      0.39893889917588
  H   -0.77550581381436      2.27739759037339      4.68100937498324
  H   -2.59348069658378      0.60383331284433      4.61270817666182
  C   0.52671941477176      3.40655243603294      2.56729839646340
  N   1.81506727181265      2.67802681282054      2.33461099866734
  H   2.03086631039172      2.11762907158231      3.15719796555926
  H   2.57342600066578      3.35127989170059      2.24805482587747
  H   0.57712854464722      3.93226815068038      3.52203877457130
  H   0.43088020004660      4.14353893977545      1.77107414295958
  Cu  1.79677671021599      1.44971170394108      0.80028555489685
