18
Coordinates from ORCA-job orca
  C   -2.45214865376136      0.93645867177371      1.46479123983896
  C   -1.35781048571647      1.77779650959570      1.29389010142646
  C   -0.69918365686058      2.30763779800834      2.40173316567769
  C   -1.13955489847758      1.97971751728490      3.68320813666232
  C   -2.23220536055385      1.13754705238532      3.85591868367236
  C   -2.88967655257561      0.61452579229917      2.74599697012104
  H   -2.96487445261263      0.53527115302825      0.59973482426471
  H   -3.74332746441848     -0.03780717037773      2.87936110089863
  H   -1.02068763377108      2.03280317357551      0.29597016561387
  H   -0.63241606466105      2.39323200704399      4.54724999493193
  H   -2.57343974519889      0.89327277297335      4.85397285443156
  C   0.51447053101787      3.25163880900749      2.21252606180599
  N   1.90790742948176      2.64447862228600      2.21745516808573
  H   1.94921354749970      1.93435332451297      1.48962651277579
  H   2.03260598420084      2.13915270964827      3.09189526290366
  H   0.50853504101011      3.99962623667808      3.00406749095746
  H   0.41340202462104      3.77296447631687      1.26189043904740
  Cu  4.01915584077668      3.61521855395813      1.99544011688235
