18
Coordinates from ORCA-job orca
  C   -2.50140732144863      0.89215615360547      1.47289736250121
  C   -1.44144304485910      1.77796050963912      1.30925599444479
  C   -0.80078151316476      2.33742051030440      2.41566807959120
  C   -1.24803996635253      1.99336115553085      3.69245923120304
  C   -2.30697078971975      1.10792428543769      3.86164556779315
  C   -2.93601320392034      0.55335168649081      2.75074836884823
  H   -2.99164759345986      0.47058450819105      0.60409808920775
  H   -3.76323461969114     -0.13312824731631      2.88000689784352
  H   -1.11008889860544      2.04342665175119      0.31143381682963
  H   -0.76526537525773      2.42791601419244      4.56081474629127
  H   -2.64532369759541      0.85512567738587      4.85891265090936
  C   0.38630099112056      3.25818074586039      2.23686804055290
  N   1.69979086261482      2.58131554299672      2.22796538089004
  H   1.70663270172534      1.88054849344430      1.49212622787277
  H   1.81389620958481      2.06680555488817      3.09667206607858
  H   0.40062482753641      3.99713091173348      3.04038445776670
  H   0.28761190955430      3.80278307831820      1.29587465674241
  Cu  5.85532395193920      4.01502477754336      1.78689665462992
