18
Coordinates from ORCA-job orca
  C   -2.49835570670297      0.89592044713173      1.47237048628743
  C   -1.43593006412222      1.77876224653154      1.30872267688043
  C   -0.79415123348577      2.33673150794857      2.41520338435268
  C   -1.24242364123240      1.99418704133273      3.69201467446808
  C   -2.30380335534657      1.11168339342227      3.86116303085958
  C   -2.93411854440876      0.55863012427453      2.75023205123590
  H   -2.98957117992880      0.47546131470312      0.60358922955868
  H   -3.76323679442407     -0.12555751372703      2.87947653661194
  H   -1.10362918422476      2.04309716827336      0.31092303966064
  H   -0.75862335077358      2.42761884574329      4.56035362149712
  H   -2.64302948748674      0.85997315372064      4.85840295788199
  C   0.39528599541783      3.25505888546896      2.23641232918753
  N   1.70790715182660      2.57583302938430      2.22781989495665
  H   1.71391980802475      1.87542998339646      1.49163414813485
  H   1.82080188924286      2.06096919337041      3.09646947330339
  H   0.41093963235731      3.99398009011229      3.03988816089395
  H   0.29787578843737      3.79957679408481      1.29527650305200
  Cu  5.76010770683063      4.01053230482526      1.79477609117369
