18
Coordinates from ORCA-job orca
  C   -2.46013355458065      0.92673993087058      1.46561448506395
  C   -1.36757419624133      1.77116796976361      1.29856891390367
  C   -0.71409908451239      2.30510012070819      2.40779225434377
  C   -1.15957883555208      1.97687514567305      3.68747987304504
  C   -2.25093455748344      1.13205216881927      3.85692187619499
  C   -2.90257474060444      0.60540015212712      2.74531275160193
  H   -2.96801172742191      0.52307135480549      0.59877385639916
  H   -3.75523515837821     -0.04881038313838      2.87599337680398
  H   -1.02735072002394      2.02589138578536      0.30152915349384
  H   -0.65738320487673      2.39276307050191      4.55333277883296
  H   -2.59591900063176      0.88859359986271      4.85394807688794
  C   0.49763778974231      3.25104876045785      2.22076743868858
  N   1.89000913650721      2.65680811658885      2.21486636923242
  H   1.94000258587546      1.95168034445617      1.48386783172954
  H   2.03369445821937      2.15551248319871      3.08778229263606
  H   0.48795242480219      3.99510193732732      3.01669849495556
  H   0.38650277714856      3.77962859290956      1.27464396427651
  Cu  4.26296103801225      3.63926325928078      1.95083450190781
