18
Coordinates from ORCA-job orca
  C   -2.46185467131716      0.91461789683590      1.46899939273115
  C   -1.38728163007309      1.78138920408056      1.29867778391482
  C   -0.73660082638841      2.32799664149273      2.40416260501694
  C   -1.17433852064885      1.98932618584907      3.68463175681784
  C   -2.24742132216182      1.12234171930106      3.85859206622682
  C   -2.89287686427361      0.58242311927033      2.74977931077539
  H   -2.96496415556377      0.50179311755166      0.60358454039764
  H   -3.73106996109508     -0.08968585882867      2.88340395656252
  H   -1.05682406440121      2.04299619702059      0.29992104373553
  H   -0.67745679531725      2.41424320746311      4.54942782427590
  H   -2.58312608853109      0.87185582027476      4.85715338028612
  C   0.46081370706309      3.26950268663940      2.21747992127552
  N   1.82522311860280      2.65237071568826      2.21273392607320
  H   1.87393949912956      1.95596336595049      1.47452147975849
  H   1.96538458695872      2.14618311021783      3.08239510967892
  H   0.45466200759325      4.01407463701207      3.01418985949018
  H   0.35063128250820      3.80142804486309      1.27207989720835
  Cu  4.62312612791626      3.62906819931571      1.96299443577215
