18
Coordinates from ORCA-job orca
  C   -2.44454597073979      0.90278050113674      1.46622279046846
  C   -1.37766668621733      1.78065710175613      1.30679584194895
  C   -0.74569919540145      2.33986073544777      2.41759724592525
  C   -1.19936406687476      2.00292512006713      3.69311379687691
  C   -2.26572441931112      1.12534249292152      3.85686319054972
  C   -2.88998430701356      0.57221310124888      2.74264025247398
  H   -2.93116192089505      0.48062579457615      0.59582688640682
  H   -3.72269785918829     -0.10822968173796      2.86815702942640
  H   -1.03687035016358      2.04107531500320      0.31103007258578
  H   -0.71926465033321      2.43725762707254      4.56278013633482
  H   -2.61282776144217      0.87701035111869      4.85210057422905
  C   0.44563398225865      3.27791238858321      2.24065155057781
  N   1.79086340937793      2.63910166451796      2.21524590001738
  H   1.82165299395233      1.94982635457700      1.46972127367636
  H   1.93458514666065      2.12370818073608      3.07865359187717
  H   0.45200906194201      4.00800399752426      3.05109397587876
  H   0.33311463677065      3.82868257071033      1.30584336980857
  Cu  4.80791338661866      3.64913439473820      1.86039081093514
