18
Coordinates from ORCA-job orca
  C   -2.47162813923513      0.89734212221136      1.47040446789556
  C   -1.41292338175295      1.78447029470211      1.30608810476917
  C   -0.77368512716015      2.34479306838152      2.41266655166719
  C   -1.21832739472721      1.99983565417278      3.68992232093532
  C   -2.27602030152771      1.11301964015155      3.85943409931320
  C   -2.90489943779613      0.55813202546776      2.74860773689781
  H   -2.96187802359611      0.47508549526623      0.60199646733766
  H   -3.73129382770863     -0.12924634860938      2.87824713766652
  H   -1.08251254099757      2.05076081163980      0.30823288056160
  H   -0.73563950268611      2.43513843556915      4.55788132719567
  H   -2.61350708765846      0.85942432967301      4.85674634938654
  C   0.41022881411193      3.27468826390877      2.23276155330716
  N   1.73421251642990      2.61263637845933      2.22108933872091
  H   1.75168860776109      1.91448779016788      1.48314027320100
  H   1.85878870808117      2.09968424256570      3.08911121636241
  H   0.41945301436270      4.01283942525479      3.03673595926980
  H   0.30593577337127      3.81872696314989      1.29235155058447
  Cu  5.34197276072876      3.80606941786525      1.84931095492486
