18
Coordinates from ORCA-job orca
  C   -2.49894651177428      0.89510916521032      1.47249260728688
  C   -1.43710713085750      1.77865173019482      1.30880498630502
  C   -0.79553171667714      2.33694621043778      2.41524684058072
  C   -1.24348797813032      1.99401259539643      3.69207278271920
  C   -2.30428178387309      1.11081500905493      3.86126962138566
  C   -2.93436283916334      0.55743263631130      2.75036825583767
  H   -2.98998320941957      0.47440911208193      0.60372571790665
  H   -3.76302878872408     -0.12729645927020      2.87964806684377
  H   -1.10508662340667      2.04327846956293      0.31098781914361
  H   -0.75988077184448      2.42769060966969      4.56039798785327
  H   -2.64324566247773      0.85882457189973      4.85852908385583
  C   0.39332778792138      3.25587753057011      2.23641174899171
  N   1.70620556637092      2.57726164422620      2.22782638377519
  H   1.71240472615646      1.87670915418109      1.49177782437385
  H   1.81931504701916      2.06250728280606      3.09651820177068
  H   0.40862665574933      3.99486587931185      3.03984173818695
  H   0.29562128030544      3.80033853388664      1.29526579266273
  Cu  5.77940738282626      4.01045433446563      1.79354283051713
