18
Coordinates from ORCA-job orca
  C   -2.39261380286648      0.94059330053756      1.45932710395521
  C   -1.30824532987347      1.79586606487630      1.29834488855781
  C   -0.66759866725315      2.34012292440828      2.41108811468365
  C   -1.12359570637647      2.01467098077169      3.68834924481057
  C   -2.20749271459716      1.15927003784400      3.85149529791051
  C   -2.84280194173817      0.62034727087582      2.73661753882840
  H   -2.88884967321697      0.52851732961547      0.58983791042084
  H   -3.68962585920101     -0.04225880993945      2.86259501788624
  H   -0.96297131946270      2.05079161066762      0.30302470092876
  H   -0.63465687368277      2.44037660558083      4.55700435617226
  H   -2.55954500190918      0.91753163418139      4.84634562626366
  C   0.53129649076379      3.26914320353843      2.23169151669935
  N   1.87864979314537      2.58319520913910      2.21043951410050
  H   1.86374103508443      1.87616810460451      1.47695390791288
  H   1.98364494723835      2.06096948785801      3.07874138951550
  H   0.56478305251240      3.99616740149970      3.04125168360455
  H   0.44306260782043      3.81279395446859      1.29276027819360
  Cu  3.65278439361310      3.56362169947071      1.95886019955395
