18
Coordinates from ORCA-job orca
  C   -2.52150286518182      0.89340312528814      1.47393429375912
  C   -1.45560747249825      1.77220076933910      1.31096542636871
  C   -0.81211195990274      2.32801130348981      2.41761873073851
  C   -1.26316501521871      1.98748171775145      3.69407761020797
  C   -2.32800424772027      1.10904576538095      3.86268618176765
  C   -2.95960089990405      0.55797683762348      2.75148594774911
  H   -3.01360792907864      0.47465075864162      0.60480851870773
  H   -3.79137698808373     -0.12308017246692      2.88026356681758
  H   -1.12151321936313      2.03494956797989      0.31332545076548
  H   -0.77838643678430      2.41922975531285      4.56273575748123
  H   -2.66894481788714      0.85895926831267      4.85977028106156
  C   0.38128611113001      3.23963751921752      2.23968289440017
  N   1.68859411508422      2.55239916158527      2.23337532961504
  H   1.69062555398369      1.85083140830731      1.49825786717521
  H   1.79695080166294      2.03758257992087      3.10264779940916
  H   0.39993788378433      3.97932520737373      3.04253687414561
  H   0.28790756786009      3.78420911078482      1.29804282623231
  Cu  6.10848524811826      4.17107432615448      1.74851293359411
