18
Coordinates from ORCA-job orca
  C   -2.47130123088897      0.89802159292931      1.47035140086652
  C   -1.41196422557976      1.78437982320774      1.30596314666143
  C   -0.77237357435759      2.34429568642746      2.41252839622890
  C   -1.21712029980460      1.99966466068556      3.68982482003914
  C   -2.27544038121185      1.11361145195084      3.85938990490972
  C   -2.90476457424312      0.55917931951510      2.74858702664370
  H   -2.96189717557357      0.47609516954998      0.60198092594674
  H   -3.73167148829760     -0.12757241131028      2.87827455602601
  H   -1.08141112296297      2.05043896595449      0.30809721944295
  H   -0.73409971924244      2.43467108831804      4.55774384575218
  H   -2.61307691805132      0.86027385162758      4.85671470057160
  C   0.41194092773380      3.27399476483063      2.23253041095560
  N   1.73621181427393      2.61217270498905      2.22090946096689
  H   1.75406555232141      1.91413115270432      1.48287827139696
  H   1.86103259841628      2.09930594848765      3.08893817166079
  H   0.42117569178555      4.01221582044262      3.03642365255772
  H   0.30768957697468      3.81792098335681      1.29206661622137
  Cu  5.32296997870877      3.80508743633058      1.85152576314865
