18
Coordinates from ORCA-job orca
  C   -2.50204410026810      0.89148607259383      1.47297614640345
  C   -1.44246457429031      1.77776032939794      1.30938352241354
  C   -0.80203976270536      2.33747406986292      2.41581153306611
  C   -1.24921875618195      1.99320246581295      3.69257788339143
  C   -2.30776907038810      1.10730069770435      3.86172450366215
  C   -2.93654148242728      0.55246252509635      2.75080678849321
  H   -2.99207791322265      0.46972150366240      0.60415261787033
  H   -3.76346577638779     -0.13438266671532      2.88003092970318
  H   -1.11120239459169      2.04338626277147      0.31157165516648
  H   -0.76665813458069      2.42794951292581      4.56095737513347
  H   -2.64604291911138      0.85434813491071      4.85898062852649
  C   0.38469686709553      3.25857905503138      2.23705866353759
  N   1.69827111524908      2.58201267432095      2.22806255222936
  H   1.70520909431639      1.88121751349288      1.49225188860741
  H   1.81257530838484      2.06753636382699      3.09676236601851
  H   0.39884827062229      3.99748604159768      3.04062531897978
  H   0.28582509119468      3.80325457813286      1.29611915773153
  Cu  5.87406456729323      4.01709287557100      1.78487475906242
