18
Coordinates from ORCA-job orca
  C   -2.34688863883565      0.96235382780273      1.45103551048373
  C   -1.27928876644710      1.83836155738690      1.29116386695148
  C   -0.63803808105622      2.38650655308344      2.40313637579184
  C   -1.08918432944214      2.04629954033668      3.67969244116676
  C   -2.15574871095293      1.17007189849990      3.84267687305296
  C   -2.78555004905074      0.62504514414143      2.72770140336931
  H   -2.83919632199178      0.54763478850240      0.58060842751976
  H   -3.61875385259972     -0.05457467579705      2.85322318755092
  H   -0.94337725014992      2.10481600287431      0.29537205234657
  H   -0.60505376932938      2.47556324166947      4.54965895834258
  H   -2.49895378156196      0.91730062460940      4.83784418203056
  C   0.54500854598120      3.27723032413204      2.23078965814805
  N   1.80701012613655      2.47799107319244      2.24244983993379
  H   1.75265549811130      1.75164750922590      1.53086567002392
  H   1.89144371288702      1.99087564724863      3.13223201230919
  H   0.61386001111689      4.00867195182124      3.03416110317330
  H   0.50119124264122      3.80988367013553      1.28244444379795
  Cu  3.32882984454367      3.59220933113334      1.92967228400579
