18
Coordinates from ORCA-job orca
  C   -2.13482692617893      1.05686607548386      1.27559274573357
  C   -1.12565749759957      2.01166544343779      1.32641022170528
  C   -0.62828756428920      2.45740530589531      2.55551277719935
  C   -1.16723979104808      1.94293934335255      3.73118383589037
  C   -2.18369872479347      0.99299375420120      3.68285966768062
  C   -2.66395768791530      0.54466122831161      2.45705190961793
  H   -2.51739762216687      0.72497632186679      0.31890071340812
  H   -3.45421887297369     -0.19417377082137      2.42159213870543
  H   -0.74373228601804      2.44175211092403      0.40449863953689
  H   -0.79139317446988      2.28677858877800      4.68750334524146
  H   -2.59907670175966      0.60259513817722      4.60311814886788
  C   0.53124825517144      3.41387457113804      2.58321007899406
  N   1.80998672051435      2.67738040033779      2.32825640140598
  H   2.05773629371960      2.14154836806029      3.15782915347694
  H   2.56723544767702      3.34128760299897      2.18412530434467
  H   0.58916062012524      3.92794868452637      3.54360506848887
  H   0.43246514566328      4.16055991924226      1.79619439577597
  Cu  1.66161979634179      1.39682892408891      0.83728374392616
