18
Coordinates from ORCA-job orca
  C   -2.23346599710617      1.02589973444189      1.32365329808921
  C   -1.18715263984926      1.94002515035894      1.31540141738037
  C   -0.64530767389161      2.40761126880191      2.51380442689162
  C   -1.16822497654981      1.94798613295454      3.72148493510810
  C   -2.21792063732172      1.03533553367489      3.73272807994432
  C   -2.75008157651926      0.57163867109173      2.53415793165508
  H   -2.65080169390696      0.67331517087498      0.38901333430083
  H   -3.56912148822189     -0.13620265657945      2.54239944675759
  H   -0.79031492345564      2.30106439774922      0.37321702582985
  H   -0.75626116974617      2.31093132480609      4.65584254027870
  H   -2.62177133082314      0.69019288143919      4.67594711952945
  C   0.51957639534788      3.36045106328631      2.49837199709008
  N   1.83607347353578      2.64771883614089      2.32715465727841
  H   1.85079165897605      1.84244941316758      2.95055537557728
  H   2.57440071908203      3.26349251368670      2.66408932533938
  H   0.55563450350145      3.91353057756945      3.43805923330932
  H   0.42786932279962      4.07593866853002      1.68322410756439
  Cu  2.46604346414901      2.05650932800428      0.55562403807502
