18
Coordinates from ORCA-job orca
  C   -2.36875232014186      1.05416999189462      1.37460406515138
  C   -1.31020726814354      1.95093593812660      1.27121694076801
  C   -0.64718198464317      2.39797103705563      2.41350165341825
  C   -1.05996395207642      1.93316224482993      3.66440316304002
  C   -2.11457794760161      1.03521695174618      3.76972569560815
  C   -2.77087689585911      0.59363688612726      2.62354349526585
  H   -2.87993163289747      0.71835030906624      0.48136145973360
  H   -3.59570074734828     -0.10267879648550      2.70540967306593
  H   -1.00000374121744      2.31270270195521      0.29791228079627
  H   -0.55531033266247      2.28128842761523      4.55838165752876
  H   -2.42961347179300      0.68503045480114      4.74445927164022
  C   0.52261932591799      3.33118031218594      2.29569558546522
  N   1.82954146059374      2.58669533001084      2.44640228523463
  H   1.63296559213239      1.59171462317222      2.52823276501750
  H   2.27397543315642      2.84940141352681      3.32208945028186
  H   0.49451637578074      4.09692427638299      3.06983262862077
  H   0.50868805860634      3.82828610347125      1.32915892432661
  Cu  3.10977947819704      2.78389980451626      0.99879729503564
