18
Coordinates from ORCA-job orca
  C   -2.45085707831778      0.91591933428138      1.46628712780952
  C   -1.36840688262961      1.77379383342876      1.30250749674469
  C   -0.72551750224203      2.31943461358924      2.41273596991643
  C   -1.17527072321064      1.98944825744029      3.69072894825415
  C   -2.25697103901107      1.13158764658317      3.85750582837968
  C   -2.89599132835040      0.59255936971946      2.74462197001175
  H   -2.94884941802310      0.50305086824157      0.59799205972311
  H   -3.74045281476880     -0.07267236996372      2.87300036459589
  H   -1.02632535398575      2.02919796882852      0.30615084506843
  H   -0.68256665078090      2.41360204032925      4.55811439205833
  H   -2.60387664249864      0.88706527615888      4.85365342750927
  C   0.48051518155664      3.26344965971533      2.22992862712067
  N   1.85860463418015      2.65566567666142      2.20818838254644
  H   1.90103644675787      1.96165628667346      1.46678590508366
  H   2.00677748885628      2.14398218543913      3.07377585701005
  H   0.47881749604859      3.99817048088781      3.03503846172244
  H   0.36497408086513      3.80500301549731      1.29118413535557
  Cu  4.42432553555454      3.61697386648680      1.92652849108750
