18
Coordinates from ORCA-job orca
  C   -2.20606448276671      1.03968417840134      1.30689626241941
  C   -1.16943719775723      1.96449636988634      1.31888791042167
  C   -0.63883958191055      2.42065707811236      2.52702837111916
  C   -1.16795900975927      1.94230687767194      3.72427969160145
  C   -2.20938314386817      1.01975170061114      3.71572339485647
  C   -2.72709973074240      0.56486954403753      2.50759675952298
  H   -2.61298468669176      0.69577781983184      0.36447434664750
  H   -3.53851246490893     -0.15168965223404      2.50064543358449
  H   -0.77199902971622      2.34387320967485      0.38353281411835
  H   -0.76684303704632      2.29721638826755      4.66642060439640
  H   -2.61741578904365      0.65918800504612      4.65133696045800
  C   0.52255727337585      3.37577316943662      2.52933460420937
  N   1.82961744151926      2.66129556732668      2.33286634092299
  H   1.92168695445327      1.94967390246385      3.05580770221987
  H   2.58611425424176      3.32235595135683      2.50109972814235
  H   0.56298241058244      3.91432229557576      3.47760478616991
  H   0.43020496066523      4.10320925820541      1.72438318208377
  Cu  2.21334028937351      1.80512634632720      0.60680939710506
