18
Coordinates from ORCA-job orca
  C   -2.44265537819452      0.90312659362646      1.46552222416589
  C   -1.37540388176242      1.78064432836957      1.30681388491647
  C   -0.74418826073108      2.33923406799321      2.41824844736147
  C   -1.19794701279508      2.00215605108534      3.69357997476338
  C   -2.26483711781944      1.12504184499543      3.85644839027826
  C   -2.88868202443911      0.57245850580774      2.74169822499202
  H   -2.92884891685455      0.48114879937691      0.59481950329380
  H   -3.72155953216671     -0.10788472101298      2.86664324336037
  H   -1.03383121723870      2.04115601029115      0.31136649343140
  H   -0.71787906063757      2.43589977431168      4.56351703249180
  H   -2.61248821979120      0.87636214037892      4.85139058280510
  C   0.44846915293708      3.27958910641404      2.24087371936260
  N   1.79957752788498      2.64732850007563      2.21339117886915
  H   1.82978150953398      1.95360290666630      1.47188408859269
  H   1.94917365106478      2.13718746645975      3.07896914778067
  H   0.45364580814250      4.00969006100571      3.05114678981655
  H   0.33359569472600      3.83007655638180      1.30629826098431
  Cu  4.75404270814160      3.62107001777121      1.86211710273143
