18
Coordinates from ORCA-job orca
  C   -2.22840472580925      1.02579315981484      1.32211578841467
  C   -1.18281047636899      1.94068492216609      1.31692993754963
  C   -0.64443427145293      2.40850712478731      2.51686326613710
  C   -1.17044437100586      1.94853532850703      3.72297977100890
  C   -2.21970806288158      1.03525054989894      3.73119933505877
  C   -2.74814270866272      0.57115494723319      2.53117855635388
  H   -2.64283329316397      0.67296724236076      0.38627207746903
  H   -3.56668492228826     -0.13728653340290      2.53708737149474
  H   -0.78371542700000      2.30213817323896      0.37579880784026
  H   -0.76125230119865      2.31154242899953      4.65852331690355
  H   -2.62598772883199      0.68979548511316      4.67326077296481
  C   0.52018460096807      3.36155669334331      2.50406784470607
  N   1.83547739136208      2.64971780611332      2.32478990238864
  H   1.86018677362067      1.85271154251951      2.95847835757424
  H   2.57700246294242      3.27133632520501      2.64352362176789
  H   0.55860820986202      3.90972486295184      3.44657874535963
  H   0.42673482572942      4.08123552565034      1.69273325020556
  Cu  2.43618945417969      2.03252242549895      0.55234756680166
