18
Coordinates from ORCA-job orca
  C   -2.42241557701891      0.93434091873887      1.46291567331895
  C   -1.33089086487461      1.78011066085621      1.29828636159815
  C   -0.68517589717154      2.31921262660881      2.40972524288560
  C   -1.13745236099957      1.99721463577350      3.68858312348309
  C   -2.22820478598654      1.15116119870547      3.85495341180536
  C   -2.87150833075269      0.61818584343864      2.74167337886944
  H   -2.92445130042309      0.52570432215158      0.59511850480606
  H   -3.72345377540460     -0.03732985067662      2.87019652968488
  H   -0.98533812844178      2.03140680709324      0.30226237822038
  H   -0.64119704971055      2.41821861577072      4.55528014649374
  H   -2.57882488563230      0.91156673364760      4.85084733653438
  C   0.52469320908417      3.25961903787139      2.22672984238643
  N   1.90564106875622      2.62384855634583      2.20537887904236
  H   1.91841915477040      1.92317603435332      1.46633230879676
  H   2.02345592030936      2.09795662814452      3.06944756975825
  H   0.53908722814064      3.99065802314580      3.03335839489273
  H   0.42312564270370      3.79957182265954      1.28688736606444
  Cu  3.83445616265208      3.58326539537001      1.97675184135708
