18
Coordinates from ORCA-job orca
  C   -2.43767780243028      0.93498215105338      1.46416133299250
  C   -1.34568508626425      1.77963511836393      1.29560166583757
  C   -0.69347335168769      2.31473886730056      2.40488456381017
  C   -1.13862908479277      1.98947907747544      3.68539151421209
  C   -2.22930728084915      1.14422849337998      3.85568868548952
  C   -2.87975260777369      0.61542577502995      2.74446442376771
  H   -2.94510331288232      0.52931704220262      0.59809190708453
  H   -3.73155349140727     -0.03968592939200      2.87598022348576
  H   -1.00501648741696      2.03282955954258      0.29840948057581
  H   -0.63659096087960      2.40713320606016      4.55039704163409
  H   -2.57418666446994      0.90180901146406      4.85292134749816
  C   0.51907406676227      3.25697183909431      2.21859798270755
  N   1.90700214975931      2.63538099366573      2.21091763221116
  H   1.93463196942964      1.93157598530555      1.47579927557607
  H   2.02644175521977      2.11734063934556      3.07907366354139
  H   0.52317785083979      3.99668610283719      3.01761624995578
  H   0.41809589805167      3.78741870966029      1.27316475180231
  Cu  3.92851787079189      3.59262136760908      1.99356654781582
