18
Coordinates from ORCA-job orca
  C   -2.44656811496495      0.93593218564390      1.46461225649325
  C   -1.35333196812150      1.77876864304187      1.29437524453470
  C   -0.69703577266896      2.31073361888728      2.40264494491472
  C   -1.13892481444059      1.98373483796981      3.68384395040319
  C   -2.23058793809516      1.14014216729210      3.85586172139794
  C   -2.88548214430378      0.61477285003853      2.74556192831742
  H   -2.95735961500874      0.53291391545849      0.59927251165246
  H   -3.73822464472686     -0.03885269336172      2.87838942175690
  H   -1.01509343931007      2.03312566517590      0.29666215287741
  H   -0.63361811273853      2.39891480367038      4.54815320954037
  H   -2.57292447363286      0.89647035946502      4.85367786604828
  C   0.51620205421410      3.25393336092098      2.21450448497760
  N   1.90725920649178      2.64069908552862      2.21495347326374
  H   1.94343713422673      1.93333456719735      1.48397236907056
  H   2.02940662159069      2.13002320982357      3.08680756508745
  H   0.51419096651871      3.99887752634965      3.00882134911155
  H   0.41543908644498      3.77862554788902      1.26575083181237
  Cu  3.98318139852543      3.60573835900759      1.99686300873802
