18
Coordinates from ORCA-job orca
  C   -2.50078044851470      0.89285239470752      1.47281046247109
  C   -1.44040430078496      1.77815628172344      1.30913095895340
  C   -0.79950565546302      2.33734671622110      2.41553427821532
  C   -1.24687213374316      1.99352284168888      3.69234567910078
  C   -2.30621042537626      1.10858100697100      3.86156142813398
  C   -2.93552220062129      0.55428539137656      2.75067825996770
  H   -2.99122777334747      0.47148299466570      0.60403118430293
  H   -3.76306041160824     -0.13180710368988      2.87996302127627
  H   -1.10893633547407      2.04344704390591      0.31130161354802
  H   -0.76388328923159      2.42787500792333      4.56068220071698
  H   -2.64466457829185      0.85595058616698      4.85883565619940
  C   0.38795782039747      3.25772134011309      2.23669956670444
  N   1.70134021644690      2.58050637680443      2.22789547279315
  H   1.70806136732291      1.87977300114302      1.49202226374616
  H   1.81521631151147      2.06595368230266      3.09660762169473
  H   0.40247738653928      3.99670479506894      3.04017391838123
  H   0.28947860857452      3.80225722185390      1.29565361765121
  Cu  5.83650127166481      4.01327843105062      1.78880108613967
