18
Coordinates from ORCA-job orca
  C   -2.14543558120672      1.05333291665854      1.28152649364657
  C   -1.13096233169720      2.00209829575088      1.32772452256884
  C   -0.62963962903323      2.44950697098256      2.55351008197034
  C   -1.16954869986548      1.94209413340883      3.73222104279641
  C   -2.19138032525128      0.99780216610262      3.68908144617497
  C   -2.67632858837521      0.54854597250334      2.46543557790705
  H   -2.53003223319751      0.71900036455108      0.32646651232976
  H   -3.47101855647357     -0.18573021567214      2.43342649619364
  H   -0.74207896793285      2.42102280363582      0.40397990032574
  H   -0.79097584074337      2.28780234752777      4.68684564201540
  H   -2.60788866229415      0.61323094636682      4.61128966748578
  C   0.52886021401910      3.40687659409956      2.57707623144893
  N   1.81322765767258      2.67864220959612      2.32416503643718
  H   2.03993187070229      2.11422086968525      3.14099295186659
  H   2.57169433387933      3.35029765246483      2.22804901067244
  H   0.58680788835822      3.92123594423907      3.53747203255354
  H   0.42738870125168      4.15355628044293      1.79047566866521
  Cu  1.75734418018742      1.45435175765569      0.78498997494107
