18
Coordinates from ORCA-job orca
  C   -2.29603595402253      1.03301312852992      1.34437665584337
  C   -1.24427083777279      1.94060347389758      1.29673261161868
  C   -0.65371122886255      2.40198406851930      2.47363504351631
  C   -1.13190971424969      1.94182828859041      3.70084422855118
  C   -2.18457456172482      1.03494214898066      3.75093428674996
  C   -2.76678101143686      0.57807859162515      2.57244265328627
  H   -2.75138112713611      0.68538785352663      0.42579795299165
  H   -3.58899169263855     -0.12507092941715      2.61106640911979
  H   -0.88221991468834      2.30097779887597      0.34087128625628
  H   -0.68277559988829      2.30078039814954      4.61958478898654
  H   -2.55362657266646      0.68956472236734      4.70824621062590
  C   0.51482836566365      3.35087065039400      2.41650111784090
  N   1.84250523084224      2.62362079421755      2.36222514250768
  H   1.72933530251355      1.71273309665499      2.80244509311114
  H   2.50396547696527      3.12449268161636      2.95219847998045
  H   0.52141553679949      3.98130683276529      3.30595054890018
  H   0.44671332250585      3.99488731212530      1.54291316109991
  Cu  2.81748040979716      2.35788709858014      0.66796261901263
