18
Coordinates from ORCA-job orca
  C   -2.44412237552497      0.90341679659079      1.46577269547209
  C   -1.37549500646062      1.77934068890051      1.30729109564314
  C   -0.74408400900168      2.33771798536697      2.41876464730790
  C   -1.19938175744850      2.00197989351567      3.69393022584924
  C   -2.26760337214531      1.12640333614456      3.85662171314099
  C   -2.89161611928433      0.57419121559054      2.74181216054263
  H   -2.93044167083689      0.48180032399381      0.59495234604967
  H   -3.72582431702349     -0.10455964570795      2.86656830663744
  H   -1.03297498407076      2.03879759919451      0.31188222433013
  H   -0.71934840031327      2.43556581920665      4.56397873289058
  H   -2.61630724883033      0.87891197825159      4.85150422896010
  C   0.44824798721767      3.27588426391655      2.24213464492337
  N   1.79497963969221      2.63903223909651      2.21534823617001
  H   1.82611013748199      1.94946770277109      1.47012826117414
  H   1.94158127061598      2.12500427786137      3.07906368230742
  H   0.45453721480820      4.00541259139486      3.05301996014877
  H   0.33492163813429      3.82674549761484      1.30751420452339
  Cu  4.78678680299040      3.65277544629499      1.85444092392633
