18
Coordinates from ORCA-job orca
  C   -2.21303858408860      1.03142582437357      1.31390987128625
  C   -1.17206508646655      1.95142916340609      1.31947444796247
  C   -0.64113294231072      2.41481176165101      2.52466732450753
  C   -1.17220615322074      1.94682238963741      3.72521722426566
  C   -2.21751172271992      1.02870425815453      3.72288391086500
  C   -2.73689585129189      0.56776207416377      2.51778882574434
  H   -2.62094029157263      0.68204138113286      0.37391010692279
  H   -3.55165585236100     -0.14504353593711      2.51560304438012
  H   -0.77151519354595      2.32109243216917      0.38185127360905
  H   -0.76981920897543      2.30671156994760      4.66489973273650
  H   -2.62734098336345      0.67650989566244      4.66089803270381
  C   0.52224103842535      3.36861623527860      2.52135431843113
  N   1.83291218828177      2.65664090596144      2.32655890478299
  H   1.89708969811281      1.90449000797260      3.01035946530451
  H   2.58465049486324      3.30290396368629      2.56105331294333
  H   0.56370157754562      3.90763897229369      3.46919364123061
  H   0.42775953479425      4.09593852686300      1.71667437650917
  Cu  2.30573276789399      1.90939218358231      0.56843047581386
