18
Coordinates from ORCA-job orca
  C   -2.45480569724707      0.90055832957606      1.46742117107940
  C   -1.39516584791142      1.78689600018998      1.30567895098652
  C   -0.75978247926101      2.34742621624812      2.41424437800523
  C   -1.20728169224524      2.00349092458003      3.69056731743381
  C   -2.26613145795539      1.11750990573875      3.85720638565336
  C   -2.89185041854030      0.56249224227282      2.74467877991896
  H   -2.94258902108847      0.47783744156592      0.59789404613843
  H   -3.71885038563642     -0.12452589035814      2.87223552017758
  H   -1.06146059300521      2.05253165435949      0.30878995920008
  H   -0.72667345010812      2.43888116819242      4.55956488375923
  H   -2.60669350342443      0.86436587983221      4.85354659140809
  C   0.42563417156815      3.28080768325152      2.23591799845491
  N   1.75566341491018      2.62501164965968      2.22065838313044
  H   1.77649231836102      1.92593325455701      1.48389709161879
  H   1.88987002366550      2.11696586432653      3.08992625015751
  H   0.43396935174421      4.01666022119985      3.04164866778369
  H   0.31928315562704      3.82686864966204      1.29716755253455
  Cu  5.07033754054758      3.70817681514338      1.85368436255648
