18
Coordinates from ORCA-job orca
  C   -2.46145072468238      0.91496270521823      1.46906040960401
  C   -1.38641977521910      1.78111838538507      1.29862184035932
  C   -0.73564419730689      2.32760644175648      2.40408252983221
  C   -1.17357132962836      1.98944582570714      3.68460011311656
  C   -2.24709813261960      1.12305817780802      3.85865982728346
  C   -2.89271142221068      0.58323239364391      2.74989315054172
  H   -2.96469665903939      0.50219671912419      0.60370250766477
  H   -3.73119048574302     -0.08850261677894      2.88359348040184
  H   -1.05575329371885      2.04237613663225      0.29984890045312
  H   -0.67653610962035      2.41432559417955      4.54932006094907
  H   -2.58296698425940      0.87292119680567      4.85724956346273
  C   0.46254681760072      3.26905353355335      2.21740686246220
  N   1.82775237410352      2.65216398073002      2.21216216383306
  H   1.87696516629740      1.95687626870987      1.47291253293956
  H   1.96766119040868      2.14460933477049      3.08108563028883
  H   0.45670903404587      4.01336071507862      3.01431527093532
  H   0.35244084038912      3.80142289844974      1.27229303247742
  Cu  4.60392912120323      3.62766031922432      1.96592041339230
