18
Coordinates from ORCA-job orca
  C   -2.48538456661319      0.89304003137400      1.47131037514098
  C   -1.42791839688763      1.78185845713644      1.30796940405766
  C   -0.78952667558600      2.34302386877788      2.41476158903698
  C   -1.23565322489151      1.99751919833212      3.69148587592695
  C   -2.29210655507543      1.10905385700036      3.86025201198049
  C   -2.91926358626676      0.55293742548597      2.74906828711585
  H   -2.97423916564565      0.47012935342234      0.60240039633209
  H   -3.74458891988033     -0.13586443710078      2.87804132772989
  H   -1.09709988452893      2.04846605620823      0.31029209013939
  H   -0.75433086926088      2.43339969954228      4.55995820742988
  H   -2.62998912297233      0.85509643468013      4.85736749813178
  C   0.39458898509575      3.26928527094148      2.23618551032650
  N   1.71275547391207      2.59958537295035      2.22642768161185
  H   1.72432901385572      1.89998439659218      1.48959114463225
  H   1.83067480259163      2.08525433440927      3.09468999815665
  H   0.40569686924133      4.00764019472394      3.04017318680574
  H   0.29325309294111      3.81385781234334      1.29556500903876
  Cu  5.62876815997175      3.90362068317779      1.80918869640292
