18
Coordinates from ORCA-job orca
  C   -2.48227624962380      0.89668945778916      1.47055841031420
  C   -1.42177226170823      1.78195326198409      1.30766698132180
  C   -0.78280533779415      2.34156369309247      2.41485589770958
  C   -1.23080408519822      1.99812423690068      3.69140986616233
  C   -2.29031756339057      1.11318421854635      3.85964474557967
  C   -2.91832520349280      0.55868728703293      2.74814659023810
  H   -2.97172659164429      0.47489675800407      0.60144778852304
  H   -3.74601531758139     -0.12734081689273      2.87673378119506
  H   -1.08915555340205      2.04696487796815      0.31017530069698
  H   -0.74869536081361      2.43276096209762      4.56005325962652
  H   -2.62981130703647      0.86069140340398      4.85657782575963
  C   0.40412493792335      3.26531142184007      2.23669183346154
  N   1.72152294380714      2.59352716208683      2.22646733211288
  H   1.73317231971527      1.89480452475970      1.48889309808883
  H   1.84006098406639      2.07943894267357      3.09471016298239
  H   0.41674587243749      4.00293760514999      3.04125875464641
  H   0.30387239751096      3.81036159983699      1.29628430840549
  Cu  5.53217080622565      3.90333141372345      1.81315235317224
