18
Coordinates from ORCA-job orca
  C   -2.46084137726147      0.90505758289318      1.46938047333943
  C   -1.39615423587335      1.78467638567429      1.30367184052120
  C   -0.75395242324142      2.34101502525895      2.41017985176006
  C   -1.19785868333915      1.99922544036934      3.68824599775668
  C   -2.26149114611593      1.11980370536938      3.85869165526702
  C   -2.89506897315666      0.56947800808366      2.74824100694191
  H   -2.95476339906428      0.48568813703900      0.60171530167175
  H   -3.72608829632755     -0.11210666178399      2.87876899525014
  H   -1.06465152097527      2.04871409203942      0.30567074366600
  H   -0.71123686723999      2.43157181742837      4.55539307726650
  H   -2.59974044752622      0.86829924569566      4.85622308216418
  C   0.43423098796395      3.27369168239656      2.22840216812771
  N   1.76861620696659      2.62299479306795      2.21490871939953
  H   1.79518318359508      1.92717237384605      1.47526809670927
  H   1.90217340717502      2.11253697641085      3.08286069733317
  H   0.44121249341524      4.01184545532394      3.03194435884361
  H   0.32711168996031      3.81640240035924      1.28794050158062
  Cu  4.99328483104571      3.72182155052587      1.89722172239838
