18
Coordinates from ORCA-job orca
  C   -2.46094360383673      0.93023816621744      1.46506551526318
  C   -1.36636341210979      1.77191459637027      1.29737754061065
  C   -0.71044063860392      2.30275628893995      2.40650588120178
  C   -1.15452241798225      1.97440547814729      3.68657058879060
  C   -2.24778142391692      1.13219490799565      3.85645898616881
  C   -2.90233205590045      0.60867449808355      2.74504635164441
  H   -2.97110075727633      0.52888288165228      0.59850852922191
  H   -3.75656033262246     -0.04338672943257      2.87616933706252
  H   -1.02673416652564      2.02694634397168      0.30025056342068
  H   -0.65004511544366      2.38811056609708      4.55211457958853
  H   -2.59202273907930      0.88838723214280      4.85363774963731
  C   0.50273767140704      3.24897383560249      2.21831864183360
  N   1.89836152257179      2.65630849806466      2.21747764963570
  H   1.94830264959284      1.94617528708364      1.49106593005961
  H   2.03970015331414      2.15921377593768      3.09338041216049
  H   0.49164582816279      3.99580448428523      3.01144480193433
  H   0.39378419542427      3.77355911393952      1.26990242985685
  Cu  4.20428007282504      3.63872878489953      1.95543280190683
