18
Coordinates from ORCA-job orca
  C   -2.43464550209606      0.93470189324374      1.46396476072087
  C   -1.34289640847472      1.77976074409894      1.29610934797506
  C   -0.69209070498975      2.31582126400880      2.40580187366093
  C   -1.13856244063286      1.99122710292618      3.68601672941864
  C   -2.22910024461582      1.14563127718342      3.85559794258580
  C   -2.87802248182266      0.61580149659962      2.74399401174675
  H   -2.94091689552220      0.52826160500982      0.59758740021656
  H   -3.72968590922074     -0.03959639503162      2.87496603614674
  H   -1.00126730070566      2.03253154490822      0.29913383986119
  H   -0.63768601862565      2.40964875935105      4.55131885541140
  H   -2.57503463685039      0.90373298481198      4.85258742042894
  C   0.52013057686856      3.25776022315067      2.22017530482586
  N   1.90699319461321      2.63350308567551      2.20958943701073
  H   1.93164703034587      1.93067166845560      1.47331704776954
  H   2.02583165896040      2.11331495360746      3.07663833173260
  H   0.52629612415549      3.99564237261832      3.02082093950615
  H   0.41896864773500      3.79021421554857      1.27592023416462
  Cu  3.91000674087838      3.58925921383210      1.99118877681563
