18
Coordinates from ORCA-job orca
  C   -2.45195748632063      0.90263858690229      1.46868681691088
  C   -1.38904723941234      1.78456092034385      1.30405367773100
  C   -0.75123740386538      2.34362224509545      2.41161683509952
  C   -1.19623261897935      2.00238098827541      3.68928611650220
  C   -2.25812880191531      1.12055777712494      3.85839190876788
  C   -2.88782124263395      0.56749666839066      2.74714632379625
  H   -2.94291518203664      0.48073427027503      0.60059548923216
  H   -3.71719796310821     -0.11626337188291      2.87671017940594
  H   -1.05572669780644      2.04799894561583      0.30654212020049
  H   -0.71206017143641      2.43660576186168      4.55680551229497
  H   -2.59764001266417      0.86894792128243      4.85544604237670
  C   0.43685030764466      3.28149272815874      2.23116587238488
  N   1.77876540428863      2.63988664599965      2.21453434532215
  H   1.81273351297313      1.95121381878622      1.46859322722582
  H   1.91412686850630      2.12270379730225      3.07822209705006
  H   0.44087439696670      4.01700682931196      3.03692799934739
  H   0.32687613831058      3.82637292251329      1.29249996676695
  Cu  4.88970362148939      3.64993055464102      1.89750375958201
