18
Coordinates from ORCA-job orca
  C   -2.34888531232105      0.96011976321297      1.45216405495654
  C   -1.28091910609096      1.83555677376597      1.29167762391464
  C   -0.64004203677810      2.38458838726344      2.40335062873494
  C   -1.09128860669595      2.04582307910210      3.68015976512823
  C   -2.15829318912188      1.17017833855732      3.84371601993142
  C   -2.78798906216145      0.62431490359334      2.72910036138014
  H   -2.84111293539749      0.54462986126527      0.58205973338483
  H   -3.62148360919022     -0.05486725147309      2.85508353557343
  H   -0.94461299353710      2.10093929577660      0.29574661120788
  H   -0.60719806577222      2.47580620391680      4.54977266652757
  H   -2.50186627651234      0.91845822674778      4.83902344187304
  C   0.54364577804122      3.27777356846549      2.23003966817664
  N   1.81011094071948      2.48425542519145      2.23817617730709
  H   1.75909778067102      1.76290792009427      1.52120449347039
  H   1.89245761512644      1.98964501600181      3.12413078431693
  H   0.61119284873992      4.00834686889532      3.03429867586285
  H   0.49698867355878      3.81191898361836      1.28268744100401
  Cu  3.35016298672221      3.58749264600350      1.94233660724788
