18
Coordinates from ORCA-job orca
  C   -2.33938260413345      1.04018168632050      1.36718188517668
  C   -1.28279936870772      1.94051334445560      1.28131374823858
  C   -0.64888784589714      2.39991176696315      2.43560756591703
  C   -1.08888168329475      1.94424011290766      3.68004373580663
  C   -2.14367182415718      1.04399384341422      3.76805061307552
  C   -2.77021802684248      0.58978084332064      2.61064964394046
  H   -2.82822959201237      0.69459719446368      0.46521034173017
  H   -3.59516357679046     -0.10788554902028      2.67886734787998
  H   -0.95147624263659      2.29620751535418      0.31272269743780
  H   -0.60682082477035      2.30219923612372      4.58245945456678
  H   -2.48164810063214      0.70222820321073      4.73807713202136
  C   0.52028059459232      3.33863659019329      2.33709582723552
  N   1.83461981988527      2.59030378413646      2.40891639324503
  H   1.64100737926416      1.60405874856872      2.56753735307933
  H   2.35355631854383      2.89848878026089      3.22734387246952
  H   0.50840769262008      4.05700580805888      3.15583488933800
  H   0.48294076233692      3.89088450008786      1.40161028357632
  Cu  3.03633255263231      2.70254160117899      0.87620550526396
