18
Coordinates from ORCA-job orca
  C   -2.22389232859828      1.02611976248318      1.32053907829552
  C   -1.17915516556767      1.94194311587413      1.31821074279836
  C   -0.64372584841521      2.40964545876469      2.51957247213827
  C   -1.17220248441477      1.94887781192404      3.72422150910690
  C   -2.22084075266994      1.03475722637942      3.72961484632257
  C   -2.74603211620466      0.57055515197130      2.52824684736597
  H   -2.63583983453358      0.67332806167878      0.38358451240050
  H   -3.56389333473974     -0.13868945950902      2.53198868209221
  H   -0.77843800135671      2.30425455642503      0.37803729234375
  H   -0.76540498717737      2.31171599410593      4.66086743738664
  H   -2.62901274429700      0.68857314944712      4.67059026579048
  C   0.52076273039535      3.36276744426354      2.50910531639123
  N   1.83494335619272      2.65149249685169      2.32324980555122
  H   1.86913185585870      1.86310895525059      2.96724080222172
  H   2.57923802419175      3.27877298634920      2.62394445441996
  H   0.56110229392763      3.90703438994175      3.45383763467823
  H   0.42603946265946      4.08575605825648      1.70078844282817
  Cu  2.40718530474948      2.00787484954134      0.55108814786736
