18
Coordinates from ORCA-job orca
  C   -2.35317085689378      0.95649611127914      1.45372099470425
  C   -1.28424831808000      1.83064914074296      1.29270675125951
  C   -0.64394826175870      2.38050346741827      2.40416181912831
  C   -1.09562218999465      2.04377748419254      3.68120644452768
  C   -2.16371072761382      1.16945554039318      3.84523559789720
  C   -2.79328184151850      0.62285234336777      2.73091606029659
  H   -2.84531347128896      0.54022384697969      0.58394320808778
  H   -3.62750930638065     -0.05536962138516      2.85729561940344
  H   -0.94709064368279      2.09455502058813      0.29669711402443
  H   -0.61158781096277      2.47447081280355      4.55046186101384
  H   -2.50814855894808      0.91920588644837      4.84061637892377
  C   0.54118853011226      3.27860329154727      2.22949016460459
  N   1.81718282516546      2.49719791188677      2.23202009274266
  H   1.77083313479551      1.78145109783826      1.50897053401438
  H   1.89837146489648      1.99315943544943      3.11296377191342
  H   0.60550577001376      4.00816440128458      3.03492858960579
  H   0.48904443291961      3.81512453126789      1.28377938478756
  Cu  3.39147125921994      3.57736730789605      1.95561390306322
