18
Coordinates from ORCA-job orca
  C   -2.32489673382721      1.04749635768099      1.34755463284533
  C   -1.27137653290680      1.95280045296233      1.28502661600681
  C   -0.65320306650871      2.40034949038379      2.45255438196273
  C   -1.10400065834966      1.92741382344872      3.68582610569519
  C   -2.15641966250308      1.02183567133006      3.75062716155424
  C   -2.76778539852228      0.57991292510886      2.58082105315490
  H   -2.80245419590784      0.71123033581931      0.43605373540414
  H   -3.59078727194746     -0.12156589594924      2.63101369232385
  H   -0.93035724036476      2.32215659821740      0.32493994742887
  H   -0.63335053926353      2.27608039082796      4.59784432063046
  H   -2.50361802940483      0.66644500514319      4.71243363618485
  C   0.51346640190274      3.34969842450603      2.38174816060543
  N   1.84151301801890      2.62166162154543      2.39803602964392
  H   1.70148060225742      1.70160558452546      2.81004174412299
  H   2.46881341834709      3.10785195057458      3.03508268694624
  H   0.49744226165438      4.02199625845605      3.23979107167622
  H   0.46432801213393      3.95114934083087      1.47741645428587
  Cu  2.89117104519192      2.38976967458718      0.74791685952674
