18
Coordinates from ORCA-job orca
  C   -2.29117299136498      1.04159489770674      1.33417759319767
  C   -1.23893530574856      1.94912165710481      1.29669948112723
  C   -0.65082454399184      2.40015938928489      2.47889166892482
  C   -1.13172753004087      1.92913573995106      3.70070315223147
  C   -2.18439584852837      1.02166418183169      3.74081265970635
  C   -2.76451691683741      0.57570512806441      2.55723605658619
  H   -2.74567452742992      0.70305154575816      0.41176777574443
  H   -3.58740985916867     -0.12705742126145      2.58801915894692
  H   -0.87584159510161      2.31850875686445      0.34460625651968
  H   -0.68502870250714      2.28065595565528      4.62352565198750
  H   -2.55520908270407      0.66786384643279      4.69435378078721
  C   0.51460103954472      3.35328380635184      2.43497614969153
  N   1.84477029439763      2.63758217599904      2.36849579577520
  H   1.77974721266132      1.78350402488754      2.91890054515968
  H   2.53638743819389      3.21288417162279      2.84593774792965
  H   0.51654972773161      3.97109864317777      3.33387172621001
  H   0.44604810962700      4.00953695412815      1.57016768246810
  Cu  2.71259851126746      2.19959455643908      0.65158540700525
