18
Coordinates from ORCA-job orca
  C   -2.48334683303021      0.89505562872322      1.47089415384674
  C   -1.42442987537429      1.78216639498633      1.30772470798373
  C   -0.78566875947392      2.34252806755443      2.41468174046629
  C   -1.23258984511548      1.99795643992318      3.69134936815514
  C   -2.29049988084022      1.11118428300877      3.85990558592655
  C   -2.91815352191429      0.55589415626967      2.74859172666113
  H   -2.97257416220571      0.47272420835397      0.60191725041281
  H   -3.74459345306406     -0.13159563756308      2.87741590327913
  H   -1.09284069812632      2.04807544266656      0.31012333838226
  H   -0.75083704072336      2.43322251383770      4.55988365375392
  H   -2.62909102049543      0.85788074568390      4.85694228063606
  C   0.39985375967369      3.26759388750932      2.23624019812610
  N   1.71779616167154      2.59685856991183      2.22645865671620
  H   1.72907122243908      1.89747855927247      1.48942452855474
  H   1.83549147240470      2.08252355120557      3.09473520965998
  H   0.41164590017555      4.00576680787593      3.04034493455624
  H   0.29912947819101      3.81223754867206      1.29562838461767
  Cu  5.57160252580843      3.90033684210551      1.81246666826198
