18
Coordinates from ORCA-job orca
  C   -2.20154327244773      1.05221521604038      1.29788360505879
  C   -1.16809825712469      1.98076327711540      1.31655191491394
  C   -0.63543462441938      2.42597857933973      2.52803663450355
  C   -1.15863402680548      1.93255005721008      3.72165806907763
  C   -2.19641833568447      1.00599790864376      3.70638759246138
  C   -2.71686313852030      0.56270143044326      2.49504151816945
  H   -2.61128212905610      0.71810588912583      0.35317968050749
  H   -3.52637780749689     -0.15593394420346      2.48313683538803
  H   -0.77697874755986      2.37363630375497      0.38383291092171
  H   -0.75566499804280      2.27861625160402      4.66631478820053
  H   -2.59988690149728      0.63347941472341      4.63930703105674
  C   0.52245766052541      3.38418785469914      2.53530388948890
  N   1.82736599878460      2.66866450573406      2.34428318867448
  H   1.95513217988291      2.01230079740818      3.11264512553268
  H   2.58471707775247      3.34427387407942      2.42941161680884
  H   0.55815579886036      3.92723584486103      3.48126091882714
  H   0.43335189980669      4.10701191499015      1.72579175652025
  Cu  2.10596705304266      1.67610283443003      0.67470121388776
