18
Coordinates from ORCA-job orca
  C   -2.11228836461408      1.06596343523523      1.26278420115877
  C   -1.11638249740508      2.03551681664607      1.32503208330907
  C   -0.62705779360632      2.47639339657852      2.56172409212929
  C   -1.16375889359863      1.94512099628724      3.73025663886274
  C   -2.16769283514029      0.98218216471269      3.66896492868486
  C   -2.63664450329320      0.53571067807099      2.43812914750529
  H   -2.48872985497641      0.73986200282038      0.30175313397308
  H   -3.41551979251259     -0.21452121156675      2.39413884859089
  H   -0.74951695131013      2.49011199476518      0.40826706796452
  H   -0.79421395633823      2.28323321082947      4.69092648262797
  H   -2.58048201704651      0.57775676141773      4.58427994359715
  C   0.53612099192463      3.42964034524009      2.59537815650926
  N   1.80141800460755      2.67495408100093      2.32986073359705
  H   2.09918669338005      2.20338161206056      3.18129911188723
  H   2.55007641329373      3.31679873839874      2.08240603786788
  H   0.59888776140364      3.94016942516066      3.55701427266639
  H   0.44055045391668      4.17854807847232      1.81013867741258
  Cu  1.46601257131522      1.26706548386971      0.97237473165569
