18
Coordinates from ORCA-job orca
  C   -2.51623907388766      0.90043160638763      1.47248447966851
  C   -1.44587779024529      1.77389424819396      1.31020492687164
  C   -0.80093273940561      2.32697742118161      2.41734476561243
  C   -1.25472563017693      1.98921316821894      3.69353129305481
  C   -2.32402767928411      1.11607592427149      3.86140303701891
  C   -2.95719341758599      0.56770571814608      2.74976534291181
  H   -3.00953409320647      0.48371439738989      0.60306281481797
  H   -3.79241026221308     -0.10922759039494      2.87799014475678
  H   -1.10948591439761      2.03459221721036      0.31280609505909
  H   -0.76866821515414      2.41891070711815      4.56248506611616
  H   -2.66715703058235      0.86798741343810      4.85822758819820
  C   0.39700743676188      3.23333864449031      2.24013376264920
  N   1.70169852247560      2.54041852409840      2.23504954967657
  H   1.70120752478752      1.83879442535867      1.49997744835158
  H   1.80697681162346      2.02537992176157      3.10457271102884
  H   0.41829957626481      3.97300464193532      3.04289538205899
  H   0.30684091819612      3.77790948459126      1.29821922862129
  Cu  5.95418648603064      4.16876713660033      1.75457465352358
