18
Coordinates from ORCA-job orca
  C   -2.45955837813442      0.92553212145735      1.46576029801845
  C   -1.36792409150843      1.77120545896257      1.29897553907448
  C   -0.71540978353777      2.30631653336551      2.40824864260101
  C   -1.16131390450447      1.97798016929355      3.68779042717065
  C   -2.25178763074749      1.13196073112134      3.85704121407997
  C   -2.90227084017204      0.60408660611863      2.74534566432750
  H   -2.96652828014288      0.52095778340919      0.59880352965735
  H   -3.75419128124981     -0.05112697746133      2.87584701076927
  H   -1.02754542425443      2.02593197927762      0.30197615973967
  H   -0.66000784481467      2.39469604859341      4.55377111891429
  H   -2.59695920591980      0.88848018523027      4.85400369382553
  C   0.49574717798230      3.25210164106282      2.22163471621135
  N   1.88674205538469      2.65684827583470      2.21406098193041
  H   1.93637560513398      1.95319624193221      1.48170339108558
  H   2.03107583257856      2.15428468029836      3.08607262317030
  H   0.48670030019452      3.99521383623529      3.01851392031812
  H   0.38399493910335      3.78203288271320      1.27627797092502
  Cu  4.28282618460927      3.63818981255345      1.94890138817877
